19
Molecule ID: 13774217
C -3.857368 0.411102 -0.118802
C -3.190664 -0.677137 -0.420918
C -1.716880 -0.728525 -0.364109
O -1.108961 -1.787531 -0.660106
O -0.954214 0.354603 0.006852
C 0.433588 0.335508 0.069361
C 1.120836 0.687185 -1.072373
C 2.499468 0.707720 -1.138582
C 3.182165 0.354917 0.007293
C 2.533559 -0.006238 1.179825
C 1.134942 -0.011350 1.195936
Br 5.102268 0.377040 -0.063898
H -3.321408 1.292848 0.179014
H -4.926523 0.412401 -0.171083
H -3.717615 -1.549801 -0.715491
H 0.595390 0.966115 -1.978305
H 3.031812 0.985996 -2.041989
H 3.106172 -0.276489 2.057637
H 0.593334 -0.286597 2.089581
