15
Molecule ID: 67889
C -2.070979 -0.454498 -1.664513
C -1.240055 0.469831 -1.234126
C 0.034317 0.077297 -0.636660
O 0.321405 -1.137790 -0.541054
O 0.924922 1.012605 -0.177264
C 2.142476 0.741993 0.402570
C 2.132599 -0.033546 1.684897
F 1.586507 -1.270319 1.636185
F 3.461298 -0.160933 2.075355
F 1.526975 0.749542 2.651493
H -1.810123 -1.492810 -1.575352
H -3.010746 -0.140690 -2.104259
H -1.469022 1.516379 -1.307741
H 2.884100 0.286468 -0.294700
H 2.600079 1.745891 0.669661
