21
Molecule ID: 8846
C 0.403662 0.583786 -2.711131
C -0.306273 1.220061 -1.556917
C -1.332394 0.214069 -1.027408
C -0.598953 -1.034148 -0.584055
O 0.337525 -0.782719 0.432984
C 0.010790 -0.261825 1.654149
O -1.183739 0.015687 1.906027
C 1.031466 -0.030271 2.652540
C 2.290840 -0.315846 2.405134
H -0.340673 0.005246 -3.307940
H 1.183265 -0.140889 -2.391635
H 0.795203 1.365237 -3.390915
H -0.853157 2.112165 -1.911599
H 0.356895 1.531130 -0.741424
H -2.015552 -0.084826 -1.840044
H -1.867437 0.711994 -0.217983
H -1.359472 -1.743374 -0.213256
H -0.091111 -1.465183 -1.468519
H 0.787403 0.382822 3.626789
H 3.050303 -0.146703 3.139848
H 2.565890 -0.728198 1.444887
