80
Molecule ID: homopoly_7294
C 3.361070 -7.394623 6.050147
O 3.695362 -6.337577 5.158895
C 2.803431 -6.185977 4.146188
O 1.787695 -6.838004 3.961800
C 3.170442 -5.114446 3.256590
C 3.479675 -4.135869 2.455421
H 3.381608 -8.359963 5.534384
H 2.379773 -7.220145 6.507915
H 4.112164 -7.420004 6.844900
H 4.362232 -3.542366 2.679738
C 3.010603 -1.643135 -4.048784
O 2.249251 -1.734769 -2.843771
C 3.000349 -1.862968 -1.722664
O 4.225897 -1.876472 -1.692745
C 2.165475 -2.043149 -0.490029
C 0.874671 -1.673963 -0.357769
H 2.320709 -1.425199 -4.870791
H 3.746674 -0.834278 -3.987585
H 3.504089 -2.598749 -4.255233
H 0.376686 -1.854654 0.596580
C -0.710268 -0.788257 -5.685463
O -0.381606 -0.381265 -4.354493
C -1.009432 0.751149 -3.949782
O -1.776052 1.416436 -4.631739
C -0.633042 1.090434 -2.538566
C -1.177169 2.221627 -2.037142
H -1.767604 -1.060215 -5.751013
H -0.465748 0.001427 -6.402454
H -0.112645 -1.672734 -5.926011
H -1.850056 2.828952 -2.645576
C 1.371202 1.146718 2.616447
O 1.155051 2.121789 1.600022
C 0.590651 3.272275 2.049925
O 0.356146 3.552666 3.213679
C 0.311970 4.179776 0.893005
C 0.512194 5.490453 1.145495
H 2.106456 1.505227 3.343502
H 1.769351 0.247102 2.142147
H 0.429937 0.886526 3.110438
H 0.849845 5.798107 2.135614
C -0.711063 -5.102324 1.027376
O 0.387464 -4.257953 1.367257
C 1.580285 -4.670423 0.861024
O 1.794600 -5.654830 0.168960
C 2.649505 -3.745186 1.327239
C 2.874169 -2.586973 0.669874
H -1.623580 -4.603295 1.353960
H -0.775128 -5.259105 -0.052636
H -0.622706 -6.057091 1.557084
H 3.715481 -1.962627 0.979667
C -3.564769 -1.658239 -2.115186
O -2.353038 -0.982786 -1.774635
C -1.279908 -1.796758 -1.622010
O -1.309646 -3.016792 -1.706139
C -0.036615 -1.024621 -1.292987
C 0.215556 0.229849 -1.724673
H -3.469887 -2.137154 -3.092095
H -3.825619 -2.396250 -1.349435
H -4.364445 -0.915007 -2.178174
H 1.126112 0.723059 -1.382982
C -3.577962 2.646453 1.852971
O -2.740506 3.074147 0.779167
C -1.829941 2.143844 0.395782
O -1.702080 1.016304 0.846700
C -0.985132 2.718453 -0.685388
C -0.047534 3.649170 -0.415976
H -2.979841 2.321610 2.714131
H -4.238068 1.839456 1.518589
H -4.200861 3.493410 2.158992
H 0.525150 4.066400 -1.246071
C -3.240176 6.341393 -0.517117
O -1.975983 6.213300 0.131438
C -0.948818 6.814080 -0.523364
O -1.047760 7.442589 -1.566797
C 0.329031 6.588781 0.210084
C 1.329739 7.393721 -0.017547
H -3.538481 7.393589 -0.575690
H -3.979078 5.805294 0.085601
H -3.205553 5.889245 -1.512073
H 2.137555 8.056754 -0.210759
