   54
2-Cyano-3-{4-[(3,4-dimethyl-phenylcarbamoyl)-methoxy]-3-methoxy-phenyl}-acrylic acid ethyl ester
    O      1.18869746      0.93955475      0.19299314      6.33282597
    O     -0.17025235     -1.29734637     -1.03845189      6.29588131
    O      4.01221279      3.05860606      0.50827687      6.51463059
    O     -7.57385758     -1.37935779     -0.04726629      6.33580076
    O     -7.22175732      0.52153101      1.14027549      6.54188998
    N      3.84936328      0.75038549      0.44259218      5.22408365
    N     -4.76250195     -2.69247236     -1.24851596      5.28822622
    C      6.75682415     -1.50084419     -0.05216334      3.95202062
    C      7.82370625     -0.58040803     -0.15832758      3.99712208
    C      5.19167524      0.35577584      0.24439270      3.83402304
    C      5.45663621     -1.02350516      0.14718964      4.18727516
    C      7.54716486      0.78949070     -0.05791005      4.08097683
    C      6.25307965      1.26924595      0.14197723      4.14559651
    C      7.00870057     -2.97889414     -0.15288122      4.20472024
    C      9.23248290     -1.05914345     -0.37518231      4.20146481
    C     -0.18499383      0.82203219      0.26369224      3.77251286
    C      1.80678709      2.10800093      0.73608858      3.93534376
    C     -0.81441656     -0.30115653     -0.34829520      3.75944152
    C      3.33358363      2.03187856      0.53716715      3.51196697
    C     -3.00019296      0.47191696      0.46028027      3.97468805
    C     -2.19847876     -0.46470422     -0.23061074      4.17852723
    C     -0.98061899      1.76185800      0.93944482      4.17824116
    C     -2.36138461      1.58989958      1.03443733      4.10136374
    C     -4.44383082      0.36289038      0.60916332      4.04463774
    C     -5.31971572     -0.58028368      0.15000853      4.07740441
    C      1.12212707     -1.11459795     -1.57767972      3.92802115
    C     -6.77679520     -0.40810492      0.47190397      3.34642065
    C     -8.97916036     -1.24414823      0.24781264      3.83304160
    C     -4.96664889     -1.73936839     -0.62561100      3.82613876
    C     -9.74152415     -2.34021415     -0.46489752      4.23812361
    H      4.63069705     -1.72999652      0.22968400      0.93393595
    H      8.36721790      1.50129875     -0.13849668      0.92758943
    H      6.06629644      2.33527952      0.21604488      0.88483055
    H      3.16941274     -0.00736049      0.47887595      0.79314140
    H      6.09025902     -3.54896405     -0.02517209      0.93400793
    H      7.72184421     -3.31168569      0.60437297      0.92541273
    H      7.43703392     -3.24224595     -1.12266805      0.92572578
    H      9.92826952     -0.22407387     -0.43050292      0.93218631
    H      9.32164431     -1.63319695     -1.30087141      0.92928026
    H      9.56022311     -1.71726213      0.43347266      0.92907890
    H      1.58112147      2.18800199      1.81823936      0.94271189
    H      1.40796932      3.01629082      0.25232443      0.93155862
    H     -2.64572005     -1.33757337     -0.69386541      0.88497024
    H     -0.52929659      2.63182577      1.40647524      0.91561701
    H     -2.95398514      2.33099754      1.56585991      0.91779076
    H     -4.91011898      1.17027806      1.17926541      0.90704261
    H      1.22361851     -0.14198798     -2.08020566      0.95293159
    H      1.90729891     -1.20592362     -0.80688943      0.96664319
    H      1.28109851     -1.90906262     -2.31639506      0.94688724
    H     -9.11969560     -1.30186861      1.34197200      0.95521282
    H     -9.31637834     -0.24300513     -0.07300750      0.95227505
    H    -10.80613691     -2.26816305     -0.24932586      0.93209320
    H     -9.39891219     -3.32431545     -0.15014588      0.91790274
    H     -9.61041295     -2.27178616     -1.54338996      0.91876280
