   26
Geometry Step: 235
    C     -4.40753149     -0.30161054      0.68866738      4.16802321
    C     -3.85062170     -0.16095155      1.89435855      4.15248658
    C     -2.43371068      0.24106387      2.11669159      3.33095841
    O     -1.90248170      0.30585488      3.22213828      6.53825898
    O     -1.75060945      0.54679466      0.97096676      6.34330029
    C     -0.36761625      0.91470004      1.14555979      3.88149363
    C      0.50531388     -0.32584795      1.38263042      3.88413914
    O      0.52602041     -1.18720515      0.24188982      6.31051044
    C      1.30668083     -0.88680561     -0.83639414      3.68008860
    C      2.16999809      0.22411090     -0.90409164      4.20034623
    C      2.93954722      0.42525339     -2.05282689      4.04925796
    C      2.86266281     -0.45591162     -3.13165465      4.11696564
    C      2.00301093     -1.55714228     -3.06152698      4.05315818
    C      1.22853542     -1.77666310     -1.92645952      4.16926134
    H     -5.44236612     -0.60666144      0.57241140      0.90484113
    H     -3.84111679     -0.11807831     -0.21887079      0.89526270
    H     -4.43524989     -0.35708310      2.79242672      0.90164221
    H     -0.06792565      1.44594162      0.23072957      0.94743489
    H     -0.28360317      1.60922586      1.99848159      0.94463951
    H      0.09618805     -0.91917853      2.21250900      0.93017865
    H      1.53248134     -0.02613780      1.66296908      0.96367005
    H      2.25569060      0.92735185     -0.07970068      0.92947028
    H      3.60654733      1.28422843     -2.10081746      0.93198770
    H      3.46707616     -0.28805080     -4.01955246      0.92757830
    H      1.93909319     -2.24933023     -3.89916474      0.93051264
    H      0.56108936     -2.63265768     -1.86761397      0.91453333
