   12
Geometry Step: 43
    C     -1.57814783      0.18757732      1.01239168      3.93286759
    O     -0.27854916      0.49542064      0.51318361      6.33865715
    C      0.72785814     -0.30274406      0.99006585      3.33368859
    O      0.50749092     -1.21115557      1.78408690      6.52660634
    C      2.07985911      0.03473187      0.46147854      4.15199669
    C      2.32190037      1.02810369     -0.39763948      4.17243529
    H     -1.61355318      0.31701595      2.10256317      0.94351798
    H     -1.84909185     -0.84885037      0.77082649      0.94213696
    H     -2.28946073      0.87207492      0.54048173      0.95297951
    H      2.89905776     -0.58742575      0.82033607      0.90209423
    H      1.52126301      1.66078777     -0.76795511      0.89762177
    H      3.32401470      1.23965246     -0.75644392      0.90539791
