   22
Geometry Step: 124
    C     -2.54157938      1.38176150     -2.74835918      4.17256161
    C     -2.65382817      0.18895393     -2.15836963      4.15147590
    C     -2.09138232     -0.13896147     -0.81638355      3.32768753
    O     -2.20205825     -1.23595652     -0.27865192      6.53099481
    O     -1.44775110      0.90726782     -0.21111276      6.35214807
    C     -0.88525224      0.62851012      1.09780597      3.85237990
    C      0.48420769     -0.00736128      0.97666943      3.99595387
    C      1.58117325      0.75343243      0.54466587      4.08787866
    C      2.84506525      0.17446410      0.43444497      4.06827491
    C      3.02887735     -1.17165566      0.75564995      4.07192163
    C      1.94302673     -1.93705182      1.18216078      4.06653996
    C      0.67741080     -1.35951808      1.29158544      4.07942516
    H     -2.01576544      2.20126789     -2.26804658      0.89788153
    H     -2.97030391      1.57660443     -3.72625200      0.90605146
    H     -3.18612602     -0.61879327     -2.65983016      0.90275933
    H     -0.82771090      1.60070249      1.61458051      0.96030907
    H     -1.58140235     -0.02258165      1.64923211      0.94368398
    H      1.44136862      1.80379353      0.29394084      0.92887637
    H      3.68890096      0.77487947      0.09983024      0.92973422
    H      4.01572784     -1.62254982      0.67220120      0.92930763
    H      2.08187349     -2.98774291      1.42901021      0.92801573
    H     -0.16938611     -1.95975137      1.61759539      0.91613866
