   32
Geometry Step: 135
    C     -2.45026806      2.19377376      4.31136632      4.17255662
    C     -1.88966391      0.98591422      4.41054349      4.15149502
    C     -0.61087886      0.59892055      3.74762940      3.32758505
    O     -0.09178793     -0.50707936      3.85700146      6.53099727
    O     -0.04106309      1.60121012      3.00869386      6.35225060
    C      1.20553966      1.26384678      2.34518188      3.85078671
    C      0.95090297      0.56236589      1.02775109      4.00153713
    C      1.20083270     -0.80931178      0.88161756      4.07817770
    C      0.97938142     -1.44789513     -0.33657775      4.08994352
    C      0.49309668     -0.73934840     -1.45064772      3.96323445
    C      0.23229190      0.63497004     -1.29304609      4.09120407
    C      0.46026887      1.27431374     -0.07723621      4.08682816
    C      0.26943095     -1.41727396     -2.75425591      3.96031046
    C      1.04200346     -2.53167949     -3.13132676      4.09111246
    C      0.83938757     -3.16153321     -4.35779582      4.06712263
    C     -0.14212147     -2.69651071     -5.23460801      4.07407324
    C     -0.91906130     -1.59418042     -4.87446980      4.06735239
    C     -0.71485791     -0.96010904     -3.65036031      4.09131745
    H     -1.99152593      2.98164723      3.72208477      0.89785786
    H     -3.38213842      2.43230088      4.81384220      0.90598347
    H     -2.36893339      0.21059964      5.00744702      0.90263204
    H      1.73338283      2.21930878      2.19088105      0.96038004
    H      1.80651159      0.63600128      3.02152835      0.94405160
    H      1.56660118     -1.37995536      1.73258165      0.91446662
    H      1.17169937     -2.51621596     -0.41740947      0.92535251
    H     -0.13295980      1.21671512     -2.13738598      0.92714202
    H      0.25933170      2.34041020      0.01698285      0.92811755
    H      1.82210948     -2.89833880     -2.46664999      0.92833040
    H      1.45235561     -4.01796870     -4.63224675      0.92990970
    H     -0.29954803     -3.18921509     -6.19184578      0.92911140
    H     -1.68907501     -1.22706193     -5.55056733      0.93016460
    H     -1.33881591     -0.10996410     -3.38076570      0.92861523
