   15
Geometry Step: 185
    C     -2.05830181     -0.10464994     -2.10073077      4.14808737
    C     -1.39998986      0.08386815     -0.95377698      4.15984902
    C      0.07853425     -0.03106117     -0.86523016      3.32870824
    O      0.84053652     -0.30351167     -1.78014660      6.51342358
    O      0.56148323      0.20881720      0.41386105      6.35952458
    C      1.98597774      0.09684677      0.54753080      3.98436517
    C      2.34939628      0.45440689      1.98943159      2.93616306
    F      1.72855432     -0.35581471      2.88744277      7.33928160
    F      3.69775725      0.31962658      2.18137677      7.35574743
    F      2.02307065      1.73960367      2.29270819      7.34037381
    H     -1.52102061     -0.34887752     -3.01190954      0.88802121
    H     -3.13791383     -0.02182536     -2.16014943      0.90288382
    H     -1.93808517      0.32919628     -0.03847841      0.90245470
    H      2.30413500     -0.93173895      0.30585330      0.92187142
    H      2.48328430      0.77604960     -0.16536992      0.91924499
