   21
Geometry Step: 155
    C      0.36425762      0.62323028     -2.96069098      4.20901764
    C     -0.22746941      1.17488843     -1.67258234      4.09008129
    C     -1.26262871      0.25144020     -1.01864020      4.13804353
    C     -0.66870422     -1.04326533     -0.46099338      3.84639874
    O      0.35347738     -0.77004729      0.52243183      6.35138188
    C     -0.09075898     -0.43748083      1.77107010      3.33104255
    O     -1.28492266     -0.40614764      2.05435625      6.53367918
    C      0.99949703     -0.12698239      2.74139477      4.15245315
    C      2.29981267     -0.14056937      2.43762260      4.17399355
    H     -0.41228373      0.43168978     -3.70115688      0.93531358
    H      0.89583846     -0.31237960     -2.78871589      0.93380036
    H      1.07105759      1.32926341     -3.39502013      0.93417582
    H     -0.70001290      2.14295959     -1.87969935      0.94692868
    H      0.57752093      1.37620254     -0.95584802      0.93920454
    H     -2.04410054     -0.00570848     -1.74400557      0.94405599
    H     -1.75919149      0.78805145     -0.20367624      0.92229659
    H     -1.45399691     -1.66213035      0.00415617      0.94861034
    H     -0.18563962     -1.63867857     -1.25169983      0.96246565
    H      0.67888976      0.13067073      3.75024293      0.90297984
    H      3.06026714      0.09811799      3.17431276      0.90624194
    H      2.64264721     -0.39214274      1.43876785      0.89783515
