544
Molecule ID: homopoly_75873
C -3.201142 9.875922 2.071025
C -3.241413 8.360424 2.218783
C -2.904655 7.929566 3.640240
C -2.978674 6.407864 3.828174
C -2.463686 6.061002 5.218736
C -2.650014 4.591785 5.602997
C -2.139659 4.420290 7.029595
C -2.429397 3.070917 7.677972
C -1.663586 1.896843 7.075461
O -2.277273 1.386098 5.898073
C -3.187931 0.408313 6.136033
O -3.744116 0.166515 7.198957
C -3.379689 -0.473461 5.014216
C -3.463146 -1.411387 4.112645
H -3.325484 10.161988 1.023781
H -4.007714 10.339683 2.648114
H -2.246379 10.281947 2.420163
H -2.516340 7.915713 1.528305
H -4.235934 7.995564 1.951345
H -3.599698 8.414841 4.339012
H -1.896177 8.285806 3.889630
H -2.372877 5.902566 3.066322
H -4.012923 6.067771 3.707207
H -2.983265 6.689509 5.956464
H -1.398391 6.319129 5.278558
H -3.705286 4.313963 5.544391
H -2.092715 3.949888 4.912139
H -2.611135 5.182243 7.663854
H -1.063148 4.613556 7.058116
H -3.512200 2.890394 7.692043
H -2.111717 3.154911 8.726522
H -1.564823 1.102827 7.829163
H -0.639732 2.195951 6.816788
H -3.971127 -1.196354 3.186579
C -8.001623 -9.792567 2.056617
C -9.259229 -10.647548 2.026635
C -10.420083 -10.038918 1.233910
C -10.935843 -8.710396 1.803240
C -10.340638 -7.498775 1.077721
C -10.678371 -6.198699 1.806932
C -10.275312 -4.937417 1.029909
C -8.766020 -4.750826 0.819304
C -8.032482 -4.395126 2.109571
O -6.640728 -4.216983 1.808994
C -5.893103 -3.936995 2.902736
O -6.324596 -3.795809 4.042314
C -4.433715 -3.882171 2.604713
C -3.841961 -3.889835 1.396011
H -7.661996 -9.561420 1.039222
H -7.197290 -10.321815 2.574690
H -8.167116 -8.854127 2.593644
H -9.007697 -11.611669 1.576218
H -9.582772 -10.855373 3.051049
H -11.241452 -10.760730 1.241886
H -10.131516 -9.912330 0.184316
H -10.742297 -8.656146 2.880062
H -12.022817 -8.679964 1.678742
H -10.740904 -7.464201 0.055933
H -9.255917 -7.597064 0.993518
H -11.757771 -6.155049 1.979831
H -10.203484 -6.200132 2.796158
H -10.769959 -4.947597 0.055145
H -10.661597 -4.069055 1.569332
H -8.315496 -5.636509 0.364610
H -8.615334 -3.942705 0.094508
H -8.442856 -3.467664 2.530084
H -8.139082 -5.202524 2.834466
H -2.746188 -3.838719 1.371430
C 3.642050 -6.204432 -10.323593
C 2.163083 -6.549780 -10.375638
C 1.436195 -6.112083 -9.107171
C -0.035776 -6.541095 -9.127625
C -0.839976 -5.790878 -8.067982
C -2.280007 -6.291875 -7.936798
C -3.076857 -5.397163 -6.980857
C -4.427859 -5.999893 -6.584222
C -5.135104 -5.201444 -5.481481
O -4.283223 -5.107202 -4.315025
C -4.871187 -5.273267 -3.097524
O -6.083056 -5.340162 -2.893872
C -3.862427 -5.317783 -2.000387
C -2.542146 -5.599362 -2.137876
H 4.142030 -6.766571 -9.530816
H 3.790836 -5.133978 -10.145310
H 4.113976 -6.457976 -11.277296
H 1.708021 -6.055771 -11.243069
H 2.048967 -7.630295 -10.521940
H 1.517361 -5.026105 -8.997766
H 1.919849 -6.551859 -8.226732
H -0.477598 -6.345656 -10.114966
H -0.102846 -7.623641 -8.954890
H -0.343897 -5.875052 -7.091717
H -0.846055 -4.728994 -8.331219
H -2.770137 -6.299955 -8.917337
H -2.263945 -7.326873 -7.569599
H -3.249263 -4.437008 -7.469113
H -2.473429 -5.203899 -6.089351
H -4.270906 -7.026737 -6.237956
H -5.073001 -6.044365 -7.464151
H -6.083365 -5.698404 -5.246207
H -5.345473 -4.184205 -5.825230
H -1.958302 -5.617664 -1.217110
C -2.878190 -6.994523 7.463873
C -3.478472 -7.713994 6.264193
C -2.484519 -7.814199 5.105779
C -3.105074 -8.551879 3.909943
C -2.640019 -8.003122 2.556995
C -1.144998 -8.177187 2.318749
C -0.700007 -7.516780 1.009966
C 0.818259 -7.541508 0.932323
C 1.466256 -6.994103 -0.335056
O 0.587136 -6.379480 -1.289902
C 0.583303 -5.016701 -1.288549
O 0.961106 -4.319385 -0.351635
C 0.156705 -4.481968 -2.635961
C 0.663376 -3.258377 -2.862887
H -3.651821 -6.815933 8.218481
H -2.086625 -7.590428 7.924594
H -2.460194 -6.024832 7.175515
H -3.814217 -8.714022 6.566942
H -4.358701 -7.156861 5.924653
H -2.190218 -6.797725 4.820562
H -1.573540 -8.329826 5.432577
H -2.863368 -9.618547 3.987085
H -4.197619 -8.472383 3.943328
H -3.193602 -8.504591 1.760890
H -2.903910 -6.940185 2.498890
H -0.579876 -7.744978 3.151979
H -0.905929 -9.246970 2.288163
H -1.133953 -8.050997 0.157535
H -1.062972 -6.481263 0.972168
H 1.169906 -8.570317 1.059717
H 1.224164 -6.992580 1.792204
H 1.958595 -7.809662 -0.870028
H 2.248506 -6.296286 -0.039448
H 1.225033 -2.831583 -2.024697
C 9.003808 6.595471 -6.443084
C 7.616265 6.725346 -7.048255
C 6.524651 6.618769 -5.986863
C 5.118086 6.709457 -6.592849
C 4.618896 5.360924 -7.119864
C 3.289393 5.529018 -7.869024
C 2.610179 4.212321 -8.284356
C 2.184860 3.385738 -7.075128
C 1.237411 2.226502 -7.407233
O 0.896733 1.615493 -6.152695
C 1.239226 0.306099 -5.996642
O 1.376330 -0.504919 -6.895021
C 1.633715 0.030441 -4.577690
C 2.491987 0.955255 -4.088047
H 9.200938 5.559140 -6.158616
H 9.119455 7.231065 -5.559067
H 9.764351 6.890538 -7.172264
H 7.488758 5.949708 -7.810452
H 7.543140 7.695482 -7.558137
H 6.645330 7.445779 -5.275807
H 6.635456 5.689668 -5.412061
H 5.100880 7.460015 -7.392426
H 4.425733 7.060206 -5.817829
H 4.495181 4.683327 -6.267260
H 5.357592 4.912877 -7.795395
H 3.469420 6.123896 -8.774754
H 2.586877 6.101351 -7.249397
H 3.273656 3.622787 -8.928973
H 1.725747 4.466570 -8.880947
H 1.705818 4.028185 -6.323265
H 3.076631 2.972680 -6.587239
H 1.715250 1.535167 -8.113163
H 0.317386 2.607212 -7.864291
H 2.740830 1.846725 -4.673643
C -7.558785 10.481116 -2.265560
C -6.472877 9.933432 -1.348104
C -5.706072 8.794300 -2.024763
C -4.593722 8.241241 -1.138630
C -3.918748 7.050456 -1.812482
C -2.778934 6.462415 -0.979930
C -2.212159 5.237034 -1.691491
C -0.994467 4.644995 -0.989915
C -0.527101 3.392946 -1.729683
O 0.595373 2.810810 -1.053000
C 0.784433 1.511571 -1.369050
O 0.093986 0.845007 -2.127135
C 2.060691 1.013309 -0.795120
C 2.219243 0.723863 0.509848
H -7.124105 10.909911 -3.173164
H -8.130270 11.263007 -1.756549
H -8.257835 9.691117 -2.556535
H -6.941379 9.576439 -0.422272
H -5.787012 10.743814 -1.075166
H -5.278823 9.154833 -2.966773
H -6.411212 7.994377 -2.279839
H -3.855954 9.026985 -0.944742
H -5.015004 7.933057 -0.177454
H -3.527566 7.360390 -2.790957
H -4.665223 6.271044 -2.000292
H -1.991420 7.213584 -0.840120
H -3.147326 6.171497 0.011604
H -3.000531 4.473200 -1.770077
H -1.927205 5.515547 -2.714777
H -0.177925 5.372922 -0.960524
H -1.218383 4.397481 0.050384
H -0.210679 3.665474 -2.748198
H -1.365191 2.685711 -1.792803
H 3.211753 0.324290 0.730263
C 4.842769 -8.450088 -3.008350
C 5.020246 -7.071480 -3.628552
C 5.602922 -6.033301 -2.669618
C 4.713252 -5.776430 -1.456589
C 5.310788 -4.718172 -0.531968
C 4.575037 -4.643356 0.802776
C 5.215926 -3.616224 1.728740
C 4.655837 -3.722421 3.147801
C 5.287651 -2.692476 4.088805
O 5.021003 -1.346975 3.652721
C 3.773751 -0.886246 3.926805
O 2.922968 -1.491251 4.567996
C 3.484972 0.418520 3.235370
C 4.516739 1.235375 2.938711
H 4.554759 -9.170329 -3.779780
H 5.770761 -8.795680 -2.542038
H 4.051666 -8.447513 -2.250526
H 5.691187 -7.163819 -4.492092
H 4.055406 -6.719187 -4.009487
H 6.599601 -6.357427 -2.341189
H 5.743002 -5.092827 -3.215297
H 4.574345 -6.704106 -0.894498
H 3.724409 -5.448909 -1.795410
H 6.363050 -4.960834 -0.342289
H 5.281778 -3.740045 -1.021497
H 3.520823 -4.384454 0.640077
H 4.597379 -5.631437 1.277650
H 6.297148 -3.784506 1.765620
H 5.057581 -2.607576 1.326416
H 4.848129 -4.723157 3.541690
H 3.568903 -3.587354 3.109674
H 4.940774 -2.837373 5.115435
H 6.376884 -2.816878 4.099763
H 5.522850 0.911964 3.209950
C -0.358389 12.620747 -2.313178
C 0.739559 12.111080 -3.233023
C 2.011466 11.767506 -2.460568
C 2.926254 10.865186 -3.292914
C 4.341504 10.707882 -2.732766
C 4.452458 10.177185 -1.296122
C 3.997320 8.726170 -1.111850
C 2.599845 8.617708 -0.496302
C 2.242445 7.170053 -0.169469
O 3.033624 6.718713 0.947836
C 2.996426 5.378783 1.138792
O 2.354192 4.582736 0.470592
C 3.844428 4.949606 2.303305
C 4.741574 5.787037 2.861496
H -0.703625 11.817286 -1.655877
H -0.005985 13.448407 -1.690833
H -1.213663 12.965940 -2.896258
H 0.371144 11.233478 -3.777872
H 0.971217 12.880559 -3.981818
H 1.756114 11.269401 -1.518072
H 2.539582 12.689824 -2.200703
H 2.458742 9.878370 -3.416644
H 3.021310 11.283254 -4.303444
H 4.896622 10.041416 -3.393842
H 4.838965 11.681149 -2.775884
H 5.525480 10.213226 -1.039999
H 3.968780 10.853804 -0.591335
H 4.004354 8.191500 -2.063443
H 4.706713 8.220174 -0.452291
H 1.851846 9.012325 -1.191201
H 2.553975 9.220729 0.417302
H 2.408388 6.545303 -1.052532
H 1.187185 7.120741 0.118267
H 4.862820 6.791921 2.477294
C 4.863599 1.163446 12.022085
C 5.396054 0.570893 10.722914
C 4.405815 -0.438664 10.148440
C 4.927373 -1.079911 8.860701
C 4.057754 -2.252280 8.403655
C 2.617040 -1.853364 8.078252
C 1.773710 -3.094784 7.784969
C 0.318481 -2.758066 7.468488
C 0.161088 -2.130134 6.093884
O -1.219593 -1.990487 5.735962
C -1.791465 -3.099803 5.193747
O -1.303900 -4.225115 5.254432
C -2.992707 -2.769888 4.357336
C -3.498839 -3.850840 3.730986
H 3.868662 1.600113 11.872518
H 4.787382 0.384624 12.791274
H 5.531615 1.948112 12.390262
H 6.360607 0.085635 10.920043
H 5.574952 1.374256 9.999061
H 4.204003 -1.213897 10.899894
H 3.460418 0.079829 9.948010
H 4.989661 -0.325756 8.069511
H 5.943494 -1.457560 9.025824
H 4.511456 -2.701428 7.512639
H 4.059979 -3.025242 9.179868
H 2.615466 -1.165521 7.224679
H 2.161924 -1.325867 8.920140
H 1.792194 -3.745065 8.665113
H 2.218277 -3.663152 6.956017
H -0.111658 -2.101627 8.236643
H -0.271871 -3.679026 7.520726
H 0.589929 -1.125777 6.077243
H 0.691133 -2.706132 5.323349
H -3.156749 -4.847752 4.003365
C -9.630757 4.912025 0.438881
C -8.129610 5.156024 0.493586
C -7.467766 5.275580 -0.880740
C -7.595468 4.056583 -1.795791
C -6.899478 2.811697 -1.253562
C -7.106874 1.623906 -2.191367
C -6.516560 0.342519 -1.605428
C -6.732272 -0.838141 -2.557430
C -6.693815 -2.196562 -1.859485
O -5.373890 -2.743953 -1.735605
C -4.824508 -2.610675 -0.510746
O -4.820731 -1.582063 0.152755
C -4.365515 -3.927585 0.041856
C -4.225117 -5.103081 -0.595655
H -10.048525 4.931825 1.451810
H -10.132954 5.686587 -0.146872
H -9.869487 3.938292 -0.002771
H -7.957241 6.095627 1.029564
H -7.647305 4.372983 1.084156
H -7.902074 6.136092 -1.402357
H -6.410476 5.499093 -0.726336
H -7.149316 4.315734 -2.765845
H -8.648422 3.840152 -1.984551
H -5.823148 3.005681 -1.128117
H -7.298352 2.559160 -0.267228
H -8.179902 1.478157 -2.355272
H -6.653991 1.834481 -3.166329
H -6.997466 0.141636 -0.637517
H -5.446620 0.481418 -1.424797
H -5.985846 -0.801791 -3.360470
H -7.722245 -0.743222 -3.014743
H -7.244161 -2.904689 -2.485801
H -7.208642 -2.166787 -0.894746
H -4.013067 -5.982984 -0.002484
C -0.865001 -12.726684 3.354607
C -2.148059 -13.170185 2.670316
C -2.609475 -12.208656 1.573699
C -1.656934 -12.160079 0.376267
C -2.151320 -11.181279 -0.685975
C -1.199553 -11.139802 -1.881888
C -1.653881 -10.097978 -2.893868
C -0.731434 -10.039589 -4.115645
C -1.202915 -9.042775 -5.180962
O -1.058065 -7.694410 -4.701240
C -2.141903 -7.166713 -4.081706
O -3.245498 -7.686614 -4.014399
C -1.752407 -5.940845 -3.297810
C -0.570196 -5.334093 -3.569151
H -0.011482 -12.774308 2.670562
H -0.644799 -13.386305 4.200164
H -0.954560 -11.706198 3.736961
H -2.939796 -13.238188 3.426694
H -2.016592 -14.176022 2.255198
H -2.734472 -11.204689 1.993877
H -3.600745 -12.527190 1.227621
H -1.568064 -13.163203 -0.057616
H -0.655620 -11.855156 0.699790
H -2.236396 -10.179108 -0.246898
H -3.155569 -11.470057 -1.016096
H -0.184024 -10.900104 -1.544858
H -1.163099 -12.129134 -2.356745
H -1.673229 -9.124595 -2.391393
H -2.676588 -10.323140 -3.221546
H 0.276208 -9.760072 -3.782738
H -0.666704 -11.032692 -4.571607
H -0.557692 -9.128536 -6.064227
H -2.224387 -9.257273 -5.515355
H 0.000591 -5.607652 -4.452021
C -5.651746 6.104117 -6.799055
C -5.064888 5.395253 -5.588034
C -3.556791 5.180615 -5.699553
C -3.144348 4.090208 -6.698346
C -3.475418 2.687987 -6.188519
C -2.905692 1.607197 -7.110341
C -2.837874 0.270046 -6.382049
C -2.124464 -0.782010 -7.230577
C -1.990266 -2.110426 -6.495209
O -1.207880 -1.964690 -5.302233
C -0.029558 -2.627616 -5.272681
O 0.440791 -3.350079 -6.140086
C 0.656621 -2.324068 -4.006012
C 1.348063 -1.180442 -3.825799
H -5.205993 7.099823 -6.917055
H -5.479060 5.551892 -7.728990
H -6.733394 6.232878 -6.675615
H -5.584184 4.444480 -5.430165
H -5.258676 6.004870 -4.701893
H -3.161803 4.909557 -4.713825
H -3.074411 6.122888 -5.981490
H -2.056248 4.163566 -6.833271
H -3.597315 4.264463 -7.678353
H -4.558081 2.545773 -6.093056
H -3.052962 2.580599 -5.182397
H -3.531608 1.524459 -8.010729
H -1.902923 1.889059 -7.447758
H -3.851816 -0.064350 -6.137159
H -2.302479 0.405114 -5.428193
H -2.682037 -0.936299 -8.162531
H -1.133016 -0.411669 -7.496141
H -2.982324 -2.459506 -6.185294
H -1.570641 -2.847293 -7.183098
H 1.756620 -1.082100 -2.824724
C 10.688899 -5.341790 3.698934
C 10.087366 -5.607782 2.328119
C 9.135481 -4.505523 1.858029
C 9.835366 -3.171037 1.585498
C 8.933631 -2.136117 0.894787
C 8.610387 -2.505110 -0.556507
C 7.730477 -1.462393 -1.247566
C 7.349700 -1.954957 -2.647121
C 6.628579 -0.905774 -3.488929
O 5.370768 -0.546206 -2.902794
C 4.837541 0.579637 -3.450324
O 5.377485 1.311851 -4.267172
C 3.426584 0.794684 -2.980716
C 3.246503 0.812360 -1.653561
H 9.903953 -5.195654 4.445894
H 11.302464 -6.193330 4.007279
H 11.327176 -4.454584 3.688347
H 9.532548 -6.552169 2.371273
H 10.890328 -5.746523 1.593388
H 8.644827 -4.867522 0.950983
H 8.347778 -4.359224 2.607651
H 10.730189 -3.332971 0.975446
H 10.174987 -2.744787 2.537484
H 8.007028 -2.005921 1.465845
H 9.449323 -1.169508 0.902136
H 8.112733 -3.477928 -0.599623
H 9.547317 -2.608555 -1.113948
H 8.278771 -0.516746 -1.314486
H 6.826448 -1.273047 -0.656759
H 6.712622 -2.839866 -2.551084
H 8.254820 -2.261401 -3.182218
H 6.434549 -1.314864 -4.484764
H 7.277765 -0.038444 -3.588880
H 4.163102 0.647450 -1.073583
C -9.522453 -1.026210 5.575473
C -8.140545 -0.773099 4.998180
C -8.056598 0.582695 4.301644
C -6.637608 0.838842 3.790521
C -6.549393 2.118883 2.952019
C -5.106459 2.525583 2.630252
C -4.400305 1.564387 1.673541
C -2.897883 1.836678 1.595851
C -2.167371 0.715179 0.847176
O -0.735580 0.934823 0.756210
C -0.051113 0.750460 1.903310
O -0.586608 0.550558 2.995551
C 1.444199 0.784041 1.743807
C 2.070911 0.655068 2.940510
H -9.800578 -0.238640 6.282611
H -9.540702 -1.982014 6.106824
H -10.275706 -1.062684 4.780924
H -7.906161 -1.562137 4.276631
H -7.394847 -0.833047 5.799344
H -8.335787 1.380176 5.005644
H -8.768739 0.615487 3.468663
H -6.313428 -0.021449 3.189944
H -5.965856 0.913069 4.651176
H -7.121372 1.986377 2.027897
H -7.018890 2.938876 3.508640
H -4.542723 2.610574 3.566869
H -5.120787 3.523415 2.177103
H -4.553770 0.531369 1.996150
H -4.841075 1.646901 0.678404
H -2.495430 1.944617 2.608814
H -2.715980 2.800547 1.102046
H -2.539125 0.650860 -0.175062
H -2.349670 -0.257485 1.319462
H 1.480632 0.608840 3.857999
C 9.100786 -1.078575 -6.404670
C 9.563099 0.247951 -7.005836
C 9.082160 1.469069 -6.217471
C 9.873810 1.636385 -4.912886
C 9.539338 2.915476 -4.142560
C 8.134490 2.889118 -3.541286
C 7.972937 3.884173 -2.399899
C 6.711226 3.594884 -1.591390
C 6.849631 4.160410 -0.180967
O 5.694180 3.898940 0.638290
C 5.610425 2.663482 1.188647
O 6.312932 1.702819 0.872486
C 4.549685 2.540210 2.256697
C 3.768447 3.545527 2.695140
H 9.585882 -1.910863 -6.922399
H 8.019436 -1.189025 -6.523016
H 9.340829 -1.155054 -5.343570
H 10.656457 0.249393 -7.060997
H 9.191221 0.313620 -8.034452
H 9.229020 2.360856 -6.839184
H 8.009672 1.388052 -6.014467
H 10.943593 1.640259 -5.138704
H 9.694857 0.775332 -4.262890
H 9.662534 3.798704 -4.780676
H 10.276031 3.005767 -3.334917
H 7.958629 1.889417 -3.140895
H 7.383206 3.073266 -4.316527
H 8.847324 3.804837 -1.742480
H 7.951798 4.910681 -2.783614
H 6.529116 2.515850 -1.526988
H 5.826905 4.018845 -2.084608
H 7.743675 3.767904 0.316007
H 6.966681 5.247016 -0.226961
H 3.055574 3.368359 3.502169
C -2.825825 5.978511 10.876603
C -1.320038 5.775113 10.841410
C -0.595299 7.008609 10.297592
C 0.919103 6.821983 10.372460
C 1.676444 8.066099 9.897603
C 3.167615 8.009903 10.243182
C 3.924441 6.850213 9.593189
C 4.163566 7.069714 8.098902
C 4.610106 5.781869 7.418146
O 5.060059 6.095810 6.092029
C 5.120493 5.014855 5.265304
O 4.755743 3.883746 5.538909
C 5.658481 5.450322 3.953363
C 6.922833 5.253067 3.699450
H -3.089510 6.821723 11.522593
H -3.314059 5.083791 11.273804
H -3.221988 6.168092 9.876286
H -0.969681 5.554855 11.856006
H -1.082670 4.903814 10.219824
H -0.884845 7.892299 10.881399
H -0.894584 7.189740 9.257316
H 1.204249 6.586997 11.404240
H 1.193859 5.958678 9.756297
H 1.532920 8.187853 8.817966
H 1.248896 8.958471 10.370270
H 3.270536 7.925813 11.331777
H 3.639739 8.960479 9.960978
H 3.401989 5.902467 9.766909
H 4.900721 6.752868 10.088620
H 3.259943 7.432018 7.595566
H 4.916436 7.853987 7.960824
H 3.762361 5.081832 7.394567
H 5.442413 5.321830 7.967585
H 7.949625 5.003335 3.522257
