256
Molecule ID: homopoly_12716
C 3.308988 -1.401804 -9.823379
C 3.973192 -0.094508 -9.414689
C 5.372762 -0.365314 -8.857827
O 3.199065 0.540907 -8.369976
C 2.183001 1.315158 -8.822592
O 1.816587 1.452488 -9.977274
C 1.491582 2.003803 -7.758643
C 0.796147 2.693150 -6.889569
H 2.342489 -1.209426 -10.299883
H 3.107030 -2.036193 -8.950044
H 3.931485 -1.962079 -10.530619
H 4.082870 0.563688 -10.289112
H 5.869358 0.578601 -8.630393
H 5.979170 -0.909604 -9.582676
H 5.325513 -0.940908 -7.926794
H 1.245773 3.556911 -6.414162
C -3.175739 0.773964 -11.255943
C -2.164193 1.910869 -11.185409
C -0.820570 1.432962 -11.715479
O -2.058690 2.309031 -9.801354
C -1.521332 3.533514 -9.572542
O -1.034268 4.282561 -10.400575
C -1.652487 3.878991 -8.120947
C -1.779619 5.185250 -7.821077
H -4.129519 1.071804 -10.810895
H -2.822730 -0.091736 -10.685231
H -3.351889 0.464506 -12.290279
H -2.539210 2.750778 -11.784666
H -0.078108 2.232818 -11.695072
H -0.435459 0.615829 -11.094989
H -0.908889 1.080138 -12.746988
H -1.763429 5.928504 -8.618977
C -4.087169 9.845100 -1.840673
C -3.249626 9.959802 -3.108520
C -2.278493 11.128656 -3.002028
O -2.492058 8.741380 -3.247628
C -2.256558 8.321970 -4.514971
O -2.690541 8.846278 -5.537302
C -1.360202 7.114173 -4.552033
C -0.648857 6.781579 -3.444482
H -4.641587 10.765476 -1.649784
H -4.816238 9.034084 -1.944796
H -3.464468 9.610959 -0.970302
H -3.927448 10.104480 -3.964124
H -1.545928 10.953498 -2.207854
H -2.809533 12.063818 -2.798707
H -1.714928 11.240791 -3.933491
H -0.760141 7.369440 -2.541917
C -4.509554 5.531728 0.930504
C -3.064404 6.006870 0.755589
C -2.400362 6.078502 2.128143
O -2.405102 5.040032 -0.084505
C -1.189847 5.382652 -0.593060
O -0.561650 6.389548 -0.314573
C -0.630957 4.305994 -1.483775
C -0.808833 2.991406 -1.236511
H -4.537517 4.557281 1.435435
H -5.003754 5.400292 -0.034928
H -5.087021 6.239564 1.527308
H -3.070176 6.991662 0.266424
H -1.452393 6.623343 2.070672
H -2.170976 5.073322 2.507523
H -3.037177 6.599842 2.853046
H -0.361313 2.257647 -1.899792
C 1.719940 6.105678 2.217285
C 2.266296 4.928656 1.425472
C 2.873409 5.403807 0.106628
O 1.227426 3.981747 1.093868
C 1.015003 3.018674 2.029675
O 1.301707 3.067461 3.212043
C 0.346348 1.853101 1.393523
C 0.914103 0.626696 1.412680
H 2.465481 6.905911 2.293509
H 0.817229 6.514056 1.755225
H 1.443282 5.794256 3.230657
H 3.057585 4.438547 2.008047
H 3.760974 6.012840 0.285400
H 3.152981 4.549417 -0.522718
H 2.155201 5.997017 -0.466087
H 0.298355 -0.186690 1.028279
C 1.521637 -4.816442 -1.159133
C 0.350572 -4.374598 -0.288990
C -0.926857 -4.260577 -1.125610
O 0.517082 -3.087120 0.338163
C 1.684503 -2.827174 0.974232
O 2.806936 -2.823770 0.465432
C 1.469586 -2.172192 2.318738
C 0.558204 -2.732585 3.120926
H 1.261477 -5.681107 -1.778009
H 1.843400 -3.998466 -1.814983
H 2.383222 -5.089253 -0.542443
H 0.167994 -5.111404 0.500974
H -1.750172 -3.857011 -0.521211
H -0.770302 -3.570433 -1.966303
H -1.227714 -5.236455 -1.518716
H 0.034980 -3.613866 2.728386
C -2.617647 -1.678073 10.184869
C -1.165627 -1.599668 9.715321
C -0.219538 -1.846654 10.892986
O -0.911870 -2.625897 8.731442
C -1.209279 -2.302671 7.440163
O -1.619583 -1.229362 7.038333
C -0.988167 -3.496922 6.572766
C -1.459869 -4.654735 7.095504
H -2.861143 -2.687325 10.535580
H -2.806460 -0.969451 10.999285
H -3.299063 -1.456832 9.358098
H -0.963037 -0.601790 9.305562
H -0.329021 -1.066536 11.650482
H -0.423927 -2.817723 11.361351
H 0.818215 -1.866536 10.549173
H -1.948796 -4.667252 8.065623
C 4.179924 -6.160794 6.928125
C 3.487784 -6.253223 5.572164
C 3.580444 -4.913432 4.845437
O 2.086583 -6.549271 5.750422
C 1.741759 -7.857141 5.917776
O 2.497950 -8.817546 5.913894
C 0.250307 -7.945352 6.154364
C -0.452643 -9.069666 5.971769
H 4.238231 -7.143707 7.408535
H 3.626579 -5.503949 7.609593
H 5.200186 -5.772402 6.819518
H 3.956428 -7.024786 4.947313
H 3.021096 -4.951395 3.902196
H 3.138241 -4.107307 5.445171
H 4.619571 -4.656023 4.639338
H -1.490415 -9.065390 6.303015
C 1.690032 -0.473147 -3.436650
C 0.335320 -0.316884 -4.092020
C 0.018592 -1.594430 -4.882208
O 0.396811 0.822473 -4.970840
C -0.790093 1.242404 -5.503121
O -1.886507 0.770522 -5.249435
C -0.546575 2.314181 -6.532104
C -1.643974 2.829652 -7.108465
H 1.922968 0.391954 -2.818412
H 1.728913 -1.366888 -2.809895
H 2.483675 -0.542410 -4.190818
H -0.427000 -0.141078 -3.329337
H 0.799056 -1.807761 -5.623173
H -0.085380 -2.449533 -4.214255
H -0.913219 -1.500602 -5.443016
H -2.644300 2.503155 -6.805982
C -6.152126 6.474868 -4.912784
C -5.113929 5.536198 -4.297119
C -5.069379 5.721645 -2.790602
O -3.796452 5.845394 -4.796560
C -3.540868 5.414563 -6.051593
O -4.343755 4.815618 -6.765567
C -2.137959 5.710052 -6.504064
C -1.210290 6.418270 -5.825426
H -6.278945 6.265496 -5.979754
H -5.828328 7.519217 -4.832896
H -7.126410 6.355481 -4.432481
H -5.351112 4.488371 -4.512298
H -6.007194 5.396034 -2.329613
H -4.237219 5.155129 -2.361267
H -4.899460 6.772051 -2.527283
H -0.240939 6.575177 -6.300418
C 2.657894 7.092095 -6.904871
C 2.967928 7.359477 -5.436060
C 3.344053 8.822697 -5.226683
O 1.783511 7.115049 -4.642133
C 1.605539 5.834841 -4.212658
O 2.325026 4.881513 -4.469080
C 0.370320 5.746866 -3.359819
C 0.329828 4.666275 -2.545397
H 3.536127 7.286997 -7.526896
H 2.340111 6.055559 -7.054079
H 1.836351 7.730580 -7.244313
H 3.796785 6.725145 -5.090350
H 4.228959 9.088002 -5.808398
H 3.540013 9.017636 -4.166117
H 2.517416 9.478585 -5.526126
H 1.155812 3.952926 -2.601462
C -5.334104 -0.017874 -0.217519
C -5.076104 1.300947 0.505055
C -5.626129 1.240070 1.926005
O -3.654477 1.514820 0.609361
C -3.072057 2.211701 -0.403559
O -3.652807 2.633280 -1.395134
C -1.588080 2.375809 -0.169889
C -1.053740 1.939184 0.991919
H -4.921105 0.010632 -1.230914
H -4.841283 -0.846885 0.297614
H -6.404857 -0.227758 -0.283738
H -5.564599 2.129338 -0.021942
H -6.698914 1.035374 1.927836
H -5.447388 2.188982 2.441562
H -5.118120 0.463620 2.508644
H -1.708197 1.582976 1.782446
C 6.790803 1.017084 2.054010
C 5.750949 0.608104 1.019910
C 6.253339 -0.543099 0.152434
O 4.570821 0.151044 1.708883
C 3.472258 0.949563 1.614453
O 3.476074 2.079980 1.152576
C 2.211883 0.178246 1.948378
C 2.371520 -1.035843 2.525583
H 7.690230 1.403146 1.565753
H 6.392073 1.790936 2.711511
H 7.076186 0.168021 2.682739
H 5.543891 1.460384 0.357388
H 5.504412 -0.792776 -0.604788
H 6.410130 -1.450685 0.747210
H 7.183593 -0.280937 -0.356639
H 3.345121 -1.351055 2.882572
C 3.543989 -0.754690 7.300798
C 2.253414 -0.259637 6.658253
C 1.429781 0.515409 7.683788
O 1.521136 -1.420586 6.202657
C 0.679446 -1.166151 5.161107
O 0.409430 -0.084912 4.667152
C 0.246567 -2.453885 4.546740
C -0.467455 -3.391117 5.205483
H 4.206057 0.088781 7.526726
H 4.075825 -1.435455 6.632472
H 3.348255 -1.295291 8.236615
H 2.518006 0.380966 5.803901
H 1.977725 1.388446 8.047633
H 0.480045 0.854090 7.256653
H 1.187279 -0.122231 8.540570
H -0.718145 -4.262960 4.604698
C -4.001545 -8.442089 4.000301
C -2.968621 -7.465656 3.448633
C -2.213906 -8.096152 2.275874
O -1.994768 -7.160343 4.472983
C -2.379322 -6.213489 5.361681
O -3.433883 -5.593734 5.314814
C -1.366284 -5.966775 6.417336
C -0.329840 -6.751959 6.777385
H -4.325729 -8.169294 5.011469
H -3.591642 -9.461542 4.053826
H -4.885062 -8.468149 3.347469
H -3.450257 -6.549569 3.098646
H -1.658130 -8.971340 2.612467
H -1.482746 -7.388282 1.875200
H -2.902762 -8.389477 1.480182
H 0.308073 -6.428834 7.616212
C 3.315505 -9.467831 2.776887
C 1.868010 -9.694202 2.356142
C 1.460820 -8.687074 1.289896
O 1.003196 -9.505598 3.501516
C 0.863874 -10.608886 4.291511
O 1.368943 -11.704311 4.075694
C -0.057914 -10.369497 5.441998
C -0.613681 -11.429869 5.986782
H 3.996509 -9.656000 1.944648
H 3.589179 -10.124521 3.606121
H 3.461828 -8.439596 3.117974
H 1.749751 -10.704023 1.940045
H 1.366212 -7.678868 1.707040
H 2.190239 -8.666684 0.474757
H 0.486920 -8.954274 0.870337
H -1.066473 -12.297693 6.413172
