544
Molecule ID: homopoly_14389411
O -3.860585 9.233289 6.411945
C -3.978139 8.323840 5.585822
O -5.044525 7.469390 5.593439
C -6.159390 7.743257 4.699588
C -7.562936 7.665874 5.335468
C -8.594748 7.086225 4.354461
C -9.521994 7.873123 3.657356
C -10.350118 7.285156 2.679641
C -10.255693 5.924921 2.383408
C -9.368941 5.120708 3.096477
C -8.575237 5.702011 4.090822
C -2.964210 8.072237 4.556740
C -2.502512 7.847070 3.342758
C -3.664316 7.563386 2.446935
C -4.040350 6.238559 2.204319
C -5.190719 5.982228 1.485204
C -5.974379 7.049113 1.050570
O -7.185096 6.846597 0.453747
C -5.582935 8.384208 1.251422
C -4.405520 8.635167 1.927249
H -6.106579 6.934496 3.941235
H -6.059013 8.657963 4.059689
H -7.871999 8.670343 5.649314
H -7.546025 6.997081 6.213925
H -9.614828 8.933891 3.836059
H -11.080982 7.909664 2.141575
H -10.873840 5.492451 1.584365
H -9.293258 4.050455 2.887608
H -7.934066 5.067202 4.676965
H -3.450916 5.411778 2.592687
H -5.462416 4.953002 1.256456
H -7.251493 5.885512 0.295229
H -6.194854 9.191103 0.875668
H -4.052425 9.650842 2.033350
O -0.737819 4.520052 2.263096
C 0.231573 4.897960 2.882906
O 0.731820 4.206376 3.956552
C -0.258827 3.506978 4.712995
C -0.488387 4.317890 5.986918
C -1.297987 3.655714 7.076301
C -0.972133 2.376960 7.531362
C -1.673873 1.796931 8.585976
C -2.683328 2.521934 9.218250
C -3.009818 3.796471 8.780718
C -2.334080 4.369390 7.703534
C 0.950625 6.218061 2.707183
C 2.131669 6.400030 2.099720
C 2.673384 7.825382 2.104562
C 2.021587 8.880383 1.458876
C 2.462491 10.206823 1.572371
C 3.628224 10.475688 2.270989
O 4.132195 11.737716 2.343068
C 4.319629 9.440279 2.907159
C 3.833515 8.134605 2.849755
H 0.171627 2.530537 4.946438
H -1.213886 3.327117 4.194184
H 0.504252 4.541167 6.437354
H -0.927768 5.284200 5.731440
H -0.152149 1.828980 7.076366
H -1.416445 0.790969 8.914087
H -3.230417 2.069097 10.046548
H -3.807113 4.362100 9.269436
H -2.604666 5.362844 7.370617
H 1.116082 8.696916 0.882907
H 1.888474 11.021675 1.085976
H 3.388582 12.350356 2.202925
H 5.274893 9.649514 3.401334
H 4.385555 7.369855 3.377350
O 2.452748 2.561875 0.567060
C 3.469677 2.669436 -0.142263
O 4.193453 1.589685 -0.492696
C 3.501195 0.586227 -1.278402
C 3.000942 -0.599823 -0.474140
C 3.890605 -1.815715 -0.505815
C 3.838649 -2.689340 -1.614634
C 4.620300 -3.849842 -1.657790
C 5.473714 -4.159250 -0.592771
C 5.553866 -3.295437 0.497578
C 4.754189 -2.130570 0.546628
C 4.091412 4.024357 -0.488722
C 4.797709 4.121608 -1.687409
C 5.324160 5.410593 -2.245446
C 6.635639 5.921561 -2.065324
C 7.100751 7.077020 -2.736716
C 6.250802 7.693294 -3.649601
O 6.634330 8.812640 -4.328557
C 4.964135 7.216700 -3.876503
C 4.504362 6.102741 -3.162398
H 4.246879 0.234163 -2.039710
H 2.740069 1.066214 -1.872766
H 2.030352 -0.896263 -0.858499
H 2.857638 -0.315078 0.587560
H 3.170233 -2.477380 -2.450506
H 4.553426 -4.524265 -2.514795
H 6.076632 -5.064501 -0.615590
H 6.249222 -3.524463 1.315628
H 4.846699 -1.476019 1.406221
H 7.341522 5.430040 -1.413741
H 8.106445 7.448686 -2.565625
H 6.957195 9.450164 -3.657431
H 4.313639 7.703919 -4.604166
H 3.509377 5.734489 -3.333135
O 4.567400 1.026567 -6.686670
C 4.485672 0.942354 -5.472647
O 4.739992 -0.206329 -4.814307
C 4.985644 -1.359430 -5.688602
C 6.309274 -1.268784 -6.470642
C 6.371152 -2.273003 -7.607626
C 7.147598 -3.430226 -7.503500
C 7.214583 -4.354142 -8.548270
C 6.483243 -4.112900 -9.724318
C 5.711213 -2.964633 -9.844695
C 5.652140 -2.039002 -8.802421
C 4.100546 2.107031 -4.514842
C 2.984626 2.802616 -4.968956
C 3.018959 3.725359 -6.148769
C 3.069541 3.255862 -7.492581
C 2.702480 4.042955 -8.599246
C 2.295252 5.339573 -8.388932
O 1.922641 6.088461 -9.489710
C 2.272222 5.869052 -7.115272
C 2.611606 5.072512 -6.000597
H 4.132933 -1.476112 -6.366447
H 5.008671 -2.251053 -5.055527
H 6.499860 -0.281373 -6.897500
H 7.144832 -1.447361 -5.787240
H 7.720305 -3.626184 -6.599494
H 7.824774 -5.245077 -8.456950
H 6.535128 -4.830563 -10.537003
H 5.149911 -2.780328 -10.769190
H 5.065181 -1.140418 -8.911990
H 3.262354 2.235829 -7.749793
H 2.667252 3.605951 -9.600823
H 1.902097 7.011283 -9.187708
H 1.892557 6.867104 -6.920105
H 2.398491 5.431845 -5.018056
O -0.560088 3.074830 -0.954086
C 0.094236 3.096248 -2.003154
O 0.994713 4.155256 -2.288957
C 0.637199 5.291573 -1.497700
C 1.501745 6.595210 -1.529630
C 1.504066 7.545868 -2.689145
C 2.239586 8.746658 -2.559427
C 2.258233 9.702104 -3.574974
C 1.530508 9.493648 -4.730744
C 0.776982 8.322744 -4.883951
C 0.777947 7.359359 -3.871590
C -0.092768 2.153348 -3.166656
C -0.891498 1.001855 -3.104867
C -1.186447 0.243529 -4.368384
C -1.960486 0.746691 -5.444808
C -2.402459 -0.089013 -6.477534
C -2.018640 -1.413969 -6.470842
O -2.432897 -2.289244 -7.445573
C -1.165505 -1.919545 -5.496759
C -0.792745 -1.103192 -4.426112
H -0.366683 5.555414 -1.803292
H 0.648173 4.966737 -0.465686
H 1.029257 7.196923 -0.752294
H 2.485964 6.417303 -1.177975
H 2.824932 8.927875 -1.661869
H 2.850208 10.605684 -3.455240
H 1.538270 10.231658 -5.533054
H 0.198845 8.156377 -5.779732
H 0.196945 6.463744 -4.013090
H -2.314420 1.763761 -5.444358
H -3.041684 0.326374 -7.269587
H -3.178435 -1.869642 -7.911559
H -0.809551 -2.937621 -5.555304
H -0.188535 -1.528286 -3.639724
O -3.211769 2.226003 -0.101585
C -3.767938 1.149326 0.189068
O -4.564513 1.017281 1.268999
C -4.535636 2.058715 2.218992
C -5.967864 2.098823 2.804534
C -5.899287 2.436863 4.251054
C -5.767606 3.751873 4.677366
C -5.684937 4.030222 6.053024
C -5.726429 3.008472 6.964349
C -5.795575 1.664718 6.552804
C -5.882691 1.383023 5.194007
C -3.545619 -0.145186 -0.547761
C -4.287546 -1.299500 -0.399581
C -5.791465 -1.165407 -0.113825
C -6.486258 -2.128725 0.634694
C -7.818904 -1.935944 1.058632
C -8.478732 -0.786377 0.700175
O -9.767096 -0.557465 1.060597
C -7.839964 0.183436 -0.082355
C -6.535428 -0.031379 -0.514512
H -4.239153 3.013958 1.813598
H -3.807575 1.756557 2.984964
H -6.558394 2.828117 2.240115
H -6.473026 1.134971 2.656124
H -5.727085 4.561920 3.953177
H -5.582828 5.068245 6.378792
H -5.664601 3.221162 8.036941
H -5.758603 0.859514 7.264722
H -5.901302 0.361971 4.836133
H -6.015968 -3.022759 0.980803
H -8.279090 -2.712731 1.686831
H -10.104041 -1.380385 1.472005
H -8.375934 1.116629 -0.322784
H -6.094883 0.757053 -1.111069
O -5.371892 -5.646933 -0.431765
C -4.753154 -5.436892 0.616329
O -5.345475 -5.578619 1.843089
C -6.685074 -6.087209 1.684316
C -7.446228 -6.287760 3.017788
C -7.067679 -7.494269 3.844918
C -7.161871 -8.794423 3.345646
C -6.954283 -9.894604 4.187666
C -6.654842 -9.685383 5.525989
C -6.557176 -8.403322 6.043657
C -6.756664 -7.297125 5.204470
C -3.312209 -4.940038 0.580369
C -2.295053 -5.696754 1.130340
C -2.704979 -6.568077 2.300111
C -3.372152 -7.767533 2.162927
C -3.567853 -8.581886 3.267633
C -3.129771 -8.182708 4.518628
O -3.294108 -9.036964 5.564333
C -2.502754 -6.950050 4.699637
C -2.281781 -6.157435 3.590873
H -6.674212 -7.015462 1.100073
H -7.248401 -5.328073 1.149292
H -8.497306 -6.394233 2.767740
H -7.342813 -5.367243 3.609105
H -7.421512 -8.975844 2.304482
H -7.022342 -10.900017 3.794951
H -6.485372 -10.543897 6.189467
H -6.317786 -8.232053 7.087054
H -6.712653 -6.307394 5.614581
H -3.686085 -8.120631 1.178869
H -4.073556 -9.559812 3.143976
H -3.013704 -8.583704 6.371766
H -2.161513 -6.608684 5.687847
H -1.753169 -5.215052 3.718412
O -1.883968 -10.180301 1.158011
C -0.889977 -9.450037 1.164596
O 0.194631 -9.738000 1.880603
C -0.053616 -10.500205 3.110143
C 0.782934 -11.792139 3.207417
C 0.768973 -12.784585 2.079303
C 1.995366 -13.180846 1.507935
C 2.054312 -14.129771 0.486549
C 0.881537 -14.735142 0.055189
C -0.340335 -14.366091 0.616144
C -0.401661 -13.387423 1.617061
C -0.734684 -8.299641 0.171398
C -0.793876 -8.768664 -1.130759
C -1.052768 -7.940943 -2.371638
C 0.055417 -7.572380 -3.179050
C -0.118635 -7.416241 -4.578086
C -1.383957 -7.603688 -5.150623
O -1.556463 -7.476211 -6.500576
C -2.484930 -7.864796 -4.343291
C -2.344026 -7.998353 -2.942037
H 0.323255 -9.847129 3.875787
H -1.102438 -10.638515 3.322835
H 1.815650 -11.470587 3.363928
H 0.488742 -12.324125 4.120366
H 2.931038 -12.747808 1.849171
H 3.012035 -14.384882 0.032302
H 0.906522 -15.459420 -0.752591
H -1.258723 -14.829728 0.254305
H -1.370866 -13.108658 2.033030
H 1.060575 -7.575041 -2.772083
H 0.774312 -7.245428 -5.197698
H -1.164343 -6.599011 -6.700526
H -3.460135 -7.997940 -4.824100
H -3.220088 -8.251412 -2.365380
O -0.830627 6.513428 0.589658
C -1.147670 7.445559 1.284015
O -1.596857 8.643533 0.830847
C -1.567955 8.882495 -0.595129
C -2.317049 7.925142 -1.541718
C -3.792792 8.188047 -1.837606
C -4.610156 7.084482 -2.175105
C -5.957247 7.266498 -2.536297
C -6.507757 8.549042 -2.554160
C -5.712911 9.649095 -2.237989
C -4.359028 9.468893 -1.896946
C -1.169012 7.506761 2.822689
C 0.077190 7.287740 3.385129
C 0.557319 7.866049 4.706819
C 0.129184 9.143415 5.159798
C 0.692777 9.711239 6.315710
C 1.706768 9.046940 7.002923
O 2.286377 9.579050 8.117727
C 2.192272 7.822295 6.574252
C 1.594928 7.246129 5.430557
H -0.555704 9.086397 -0.893214
H -1.989890 9.899581 -0.662692
H -1.801591 7.963441 -2.481967
H -2.268840 6.895869 -1.160124
H -4.212998 6.070868 -2.147164
H -6.576981 6.411736 -2.781912
H -7.564667 8.698095 -2.797387
H -6.137009 10.652854 -2.261953
H -3.767291 10.355480 -1.690211
H -0.596685 9.699941 4.603220
H 0.293016 10.673907 6.669443
H 2.056381 10.521833 8.170622
H 3.004686 7.310569 7.083593
H 2.019427 6.299847 5.119481
O 3.457121 4.839916 3.957389
C 3.631013 4.483765 2.808380
O 4.349014 3.403181 2.465791
C 4.901294 2.533839 3.513535
C 5.487057 3.254901 4.726529
C 6.469382 2.385900 5.490847
C 6.034536 1.225867 6.140923
C 6.938084 0.431962 6.843519
C 8.284822 0.796700 6.901701
C 8.726797 1.951095 6.260600
C 7.830149 2.745630 5.556932
C 3.044605 5.230707 1.593461
C 3.928695 5.232014 0.505197
C 5.176228 6.085287 0.723306
C 6.320918 5.514607 1.323144
C 7.494613 6.270128 1.549164
C 7.501464 7.609114 1.155589
O 8.607436 8.389735 1.404656
C 6.419396 8.191379 0.549367
C 5.253789 7.431279 0.310739
H 4.102289 1.858522 3.806108
H 5.680623 1.951433 3.013174
H 5.969680 4.211755 4.446493
H 4.692028 3.527645 5.437883
H 4.987583 0.930061 6.104179
H 6.596222 -0.467807 7.349225
H 8.991491 0.180611 7.459939
H 9.771748 2.240805 6.308510
H 8.176492 3.642014 5.057452
H 6.374041 4.465407 1.547658
H 8.359419 5.786553 1.982799
H 9.187789 7.907957 2.016085
H 6.448225 9.242349 0.236073
H 4.425038 7.892126 -0.201438
O 7.349113 3.209432 -0.831649
C 6.670721 2.531412 -1.613628
O 6.883737 1.224152 -1.876774
C 8.061809 0.608331 -1.330280
C 7.511895 -0.636852 -0.685899
C 8.584914 -1.649840 -0.364267
C 9.490083 -1.434961 0.648752
C 10.436943 -2.409214 0.998482
C 10.462512 -3.595138 0.219305
C 9.574083 -3.813295 -0.807629
C 8.633856 -2.823126 -1.174497
C 5.410257 2.958236 -2.383744
C 5.292271 2.584398 -3.724455
C 6.624833 2.494678 -4.399189
C 7.144005 3.706473 -4.904237
C 8.393697 3.711497 -5.517776
C 9.072340 2.510235 -5.673931
O 10.275565 2.561067 -6.324020
C 8.582073 1.294058 -5.220138
C 7.334555 1.318600 -4.572982
H 8.598394 1.265845 -0.636394
H 8.721693 0.382608 -2.170710
H 6.752708 -1.070916 -1.335335
H 6.974330 -0.350952 0.232859
H 9.447645 -0.512151 1.253164
H 11.151095 -2.238136 1.771420
H 11.197864 -4.384068 0.493120
H 9.584215 -4.735716 -1.398992
H 7.921257 -2.993399 -1.961050
H 6.618538 4.626694 -4.787883
H 8.807444 4.649196 -5.873634
H 10.694342 1.686638 -6.242644
H 9.116644 0.352929 -5.332156
H 6.972009 0.385249 -4.158712
O 1.952832 -0.334118 -4.858011
C 1.555007 0.673589 -5.376729
O 1.014019 0.788077 -6.631590
C 1.596482 -0.108869 -7.590276
C 0.603908 -0.565313 -8.663222
C 0.350448 0.491224 -9.712755
C -0.671658 1.440427 -9.569047
C -0.876861 2.407218 -10.562617
C -0.058532 2.436478 -11.693505
C 0.949752 1.493000 -11.842068
C 1.152455 0.523796 -10.851816
C 1.630845 2.087018 -4.866467
C 0.461382 2.653551 -4.447599
C -0.397000 3.665451 -5.244999
C -1.372438 4.454994 -4.583735
C -2.247846 5.324015 -5.312059
C -2.162199 5.415107 -6.665968
O -3.003633 6.273757 -7.304620
C -1.238210 4.616307 -7.365937
C -0.388935 3.752285 -6.655166
H 2.278180 0.538421 -8.115272
H 2.196006 -0.888324 -7.161962
H 1.022266 -1.448210 -9.139052
H -0.354668 -0.867436 -8.241621
H -1.298324 1.448893 -8.680166
H -1.671521 3.141867 -10.444128
H -0.224176 3.184306 -12.457077
H 1.597666 1.508662 -12.722425
H 1.959636 -0.200267 -10.978457
H -1.543745 4.407065 -3.536736
H -2.992905 5.917389 -4.750411
H -2.770548 6.278151 -8.265059
H -1.190433 4.641508 -8.466313
H 0.264184 3.124636 -7.238434
O -0.874124 -1.394976 -0.624409
C -0.812469 -0.174258 -0.784754
O -0.173004 0.644303 0.091921
C 0.115843 -0.014290 1.318456
C 0.630191 0.873897 2.459280
C 0.272526 0.259593 3.804935
C 1.246754 -0.200768 4.702901
C 0.859997 -0.746923 5.934911
C -0.473309 -0.867541 6.278359
C -1.456640 -0.392178 5.411603
C -1.088935 0.166953 4.183791
C -1.564217 0.476173 -1.891032
C -2.893503 0.171129 -1.852781
C -3.839609 0.430850 -2.968125
C -4.222412 1.744626 -3.286972
C -5.173521 1.964856 -4.283200
C -5.741218 0.880303 -4.938169
O -6.701967 1.052016 -5.892699
C -5.400713 -0.421180 -4.630363
C -4.433930 -0.640640 -3.643583
H -0.824162 -0.464716 1.649228
H 0.827345 -0.809468 1.140125
H 1.722600 0.972353 2.384386
H 0.224317 1.880804 2.383705
H 2.302117 -0.147416 4.442355
H 1.628443 -1.091273 6.625816
H -0.765661 -1.296411 7.240547
H -2.500596 -0.430767 5.697033
H -1.871704 0.538820 3.524792
H -3.753012 2.576759 -2.791012
H -5.423022 2.989389 -4.555753
H -7.162359 1.894006 -5.715180
H -5.853640 -1.267870 -5.145698
H -4.115725 -1.650281 -3.438715
O -3.630310 -1.055551 2.284177
C -3.549384 -2.199521 1.800223
O -3.464124 -3.277002 2.644787
C -3.671366 -2.980479 4.019328
C -5.124880 -3.282264 4.353889
C -5.366979 -3.284795 5.838879
C -4.901479 -4.368710 6.599714
C -5.123341 -4.404573 7.985742
C -5.795206 -3.350902 8.605421
C -6.250808 -2.271368 7.859458
C -6.043699 -2.245394 6.470116
C -3.585214 -2.479655 0.310220
C -3.264885 -3.683368 -0.251073
C -3.158598 -3.914080 -1.738229
C -4.278093 -4.069380 -2.584052
C -4.118647 -4.403747 -3.950122
C -2.842207 -4.582767 -4.454699
O -2.623828 -4.849225 -5.783043
C -1.733801 -4.482391 -3.629247
C -1.880663 -4.130914 -2.278940
H -2.969561 -3.592758 4.597308
H -3.423207 -1.944663 4.259786
H -5.390447 -4.269744 3.951627
H -5.793900 -2.579466 3.850802
H -4.388979 -5.199123 6.121933
H -4.778521 -5.256002 8.560860
H -5.967542 -3.379800 9.685841
H -6.771075 -1.451361 8.344765
H -6.438686 -1.407998 5.902081
H -5.280950 -3.964871 -2.199991
H -5.005913 -4.550671 -4.574851
H -3.351725 -4.435847 -6.281447
H -0.733221 -4.673785 -4.026895
H -0.994530 -4.060577 -1.668594
O 0.894688 -4.320975 0.183925
C 0.056829 -4.584213 1.085384
O 0.032957 -4.024923 2.291550
C 1.192022 -3.206877 2.678751
C 2.286181 -4.116989 3.210030
C 3.094464 -3.642233 4.380530
C 2.541383 -3.677414 5.669821
C 3.314376 -3.356630 6.777342
C 4.647444 -2.982004 6.611565
C 5.191167 -2.902688 5.334337
C 4.411101 -3.235637 4.218451
C -0.858277 -5.756735 0.883400
C -0.211083 -6.974513 0.597506
C 1.212044 -7.062091 1.037119
C 2.265241 -7.028273 0.145052
C 3.581457 -7.268731 0.576891
C 3.826391 -7.534730 1.923293
O 5.114860 -7.820519 2.305041
C 2.784606 -7.575417 2.853847
C 1.459220 -7.319966 2.417901
H 0.843745 -2.531510 3.456646
H 1.477128 -2.536317 1.896618
H 1.779611 -5.032432 3.535584
H 2.927091 -4.386405 2.368237
H 1.505803 -3.989436 5.806202
H 2.882250 -3.412948 7.773276
H 5.249736 -2.717208 7.477089
H 6.230579 -2.616056 5.199060
H 4.875990 -3.228616 3.237561
H 2.088380 -6.804364 -0.910997
H 4.415645 -7.262338 -0.127506
H 5.097043 -7.955673 3.262133
H 2.942109 -7.786951 3.908463
H 0.658624 -7.379869 3.134058
O -0.596708 -12.342228 -1.527864
C -0.708439 -11.252791 -2.038001
O -1.520116 -11.015492 -3.098178
C -2.918357 -11.322129 -2.872856
C -3.233043 -11.701597 -1.396415
C -4.644808 -11.769891 -0.835657
C -4.922123 -12.847804 0.053267
C -6.039261 -12.795885 0.885918
C -6.924875 -11.729565 0.801786
C -6.678361 -10.684993 -0.103324
C -5.537879 -10.684547 -0.920020
C -0.088976 -10.049357 -1.438074
C 1.221593 -10.110702 -1.297362
C 2.659191 -10.235898 -1.297682
C 3.345767 -10.505034 -0.106266
C 4.696057 -10.804685 -0.216639
C 5.350372 -10.801438 -1.438956
O 6.662688 -11.158576 -1.493877
C 4.652365 -10.433871 -2.587471
C 3.295619 -10.134041 -2.540575
H -3.447625 -10.393906 -3.107730
H -3.284031 -12.008108 -3.626748
H -2.799307 -12.703221 -1.241244
H -2.755254 -10.991987 -0.722288
H -4.212215 -13.668981 0.169018
H -6.180805 -13.598236 1.611441
H -7.761830 -11.659895 1.501370
H -7.359448 -9.834389 -0.146003
H -5.317601 -9.826433 -1.556817
H 2.821438 -10.580112 0.818343
H 5.283105 -11.097238 0.683864
H 6.903370 -11.174907 -2.442993
H 5.123090 -10.436734 -3.588950
H 2.742068 -9.914102 -3.436436
