400
Molecule ID: homopoly_19855
C 3.947048 -1.053922 7.870027
C 2.663072 -0.544628 8.499626
C 2.823159 0.225637 9.827554
C 3.466514 -0.614001 10.949852
C 4.991647 -0.597238 10.952120
C 1.429817 0.697571 10.287553
O 0.941607 1.693862 9.369290
C -0.384128 1.951884 9.454410
O -1.196477 1.374065 10.162743
C -0.778571 3.062310 8.626541
C -1.080668 4.157473 7.992891
H 4.311950 -1.948001 8.385659
H 4.728954 -0.288154 7.879538
H 3.761838 -1.342012 6.826786
H 2.163971 0.102914 7.764213
H 1.995879 -1.403224 8.655873
H 3.440495 1.115214 9.627165
H 3.144009 -0.233269 11.924652
H 3.109137 -1.652045 10.900135
H 5.412492 -1.184614 10.134225
H 5.378570 0.423999 10.879923
H 5.365337 -1.032304 11.885634
H 1.487108 1.165211 11.275461
H 0.743429 -0.157113 10.335432
H -0.864684 5.109066 8.474310
C -3.531415 6.014885 -0.990843
C -3.109903 5.996296 0.467426
C -4.211312 6.496723 1.428215
C -4.775390 7.887273 1.068825
C -3.745970 9.002958 0.988867
C -3.716601 6.485265 2.881702
O -3.433317 5.135868 3.309162
C -2.160729 4.913623 3.713810
O -1.226298 5.700346 3.665666
C -2.017227 3.549527 4.302114
C -2.031134 2.568409 3.374877
H -4.470960 5.474093 -1.133758
H -2.761964 5.539630 -1.599959
H -3.664575 7.030725 -1.365313
H -2.203263 6.598893 0.595505
H -2.839891 4.969094 0.736909
H -5.039590 5.776088 1.364944
H -5.541912 8.165659 1.805501
H -5.299684 7.826438 0.106113
H -3.008784 8.817214 0.204474
H -4.243332 9.950062 0.752151
H -3.217009 9.136146 1.936290
H -4.502877 6.856810 3.546866
H -2.853751 7.148934 3.013304
H -2.271660 2.796408 2.334859
C -1.355467 -4.401568 9.644226
C -0.799128 -3.084015 9.122499
C -1.676973 -2.377440 8.075736
C -2.981001 -1.762003 8.626548
C -4.067730 -2.768234 8.972776
C -0.845469 -1.266164 7.393223
O -1.488826 -0.789990 6.202331
C -1.359150 -1.643435 5.147791
O -0.731921 -2.695613 5.163466
C -2.211793 -1.192575 4.004497
C -2.715900 -2.244638 3.326485
H -2.108763 -4.243562 10.420253
H -1.792011 -5.007411 8.840426
H -0.547264 -4.987118 10.104747
H -0.595583 -2.416873 9.965371
H 0.171403 -3.316515 8.663818
H -1.961462 -3.118728 7.318487
H -2.767104 -1.132004 9.499124
H -3.403849 -1.095745 7.862000
H -3.912100 -3.193587 9.968346
H -5.045091 -2.271875 8.992672
H -4.124983 -3.577419 8.237300
H -0.728934 -0.414920 8.061948
H 0.164904 -1.609922 7.140493
H -2.417471 -3.238372 3.694532
C -10.530048 -3.719065 3.012470
C -9.529512 -4.659022 3.662783
C -8.034897 -4.445505 3.335729
C -7.346084 -3.372997 4.212284
C -7.896953 -1.959831 4.117312
C -7.765303 -4.258529 1.833936
O -6.348632 -4.357441 1.605104
C -5.925356 -3.904622 0.399991
O -6.627917 -3.498152 -0.511014
C -4.425679 -3.897717 0.358065
C -3.841681 -4.057331 -0.848553
H -10.403696 -2.688813 3.340755
H -11.546858 -4.028679 3.278037
H -10.453074 -3.743328 1.921456
H -9.662616 -4.641191 4.753719
H -9.791804 -5.682924 3.353188
H -7.529940 -5.385727 3.620957
H -6.278823 -3.346171 3.959804
H -7.399701 -3.691558 5.261833
H -8.038603 -1.636440 3.082360
H -8.845979 -1.870505 4.651166
H -7.201342 -1.255362 4.589234
H -8.142961 -3.290133 1.486518
H -8.263558 -5.054532 1.263828
H -4.507223 -4.254519 -1.688100
C -4.660253 -2.539162 -7.302242
C -6.031650 -3.150695 -7.075225
C -6.080976 -4.512750 -6.353374
C -5.158366 -5.584846 -6.964500
C -5.482593 -5.903992 -8.416888
C -5.872922 -4.384411 -4.826029
O -4.497656 -4.544172 -4.472702
C -3.847563 -3.471047 -3.974903
O -4.313328 -2.372719 -3.726292
C -2.425857 -3.850805 -3.738284
C -1.724781 -4.056302 -4.875354
H -4.118729 -2.383525 -6.370672
H -4.047819 -3.151394 -7.966810
H -4.771387 -1.554832 -7.772326
H -6.530956 -3.253236 -8.051738
H -6.639120 -2.427068 -6.512979
H -7.119267 -4.858609 -6.474843
H -4.106999 -5.287349 -6.892088
H -5.262014 -6.510867 -6.383047
H -4.869835 -6.745359 -8.761803
H -6.533975 -6.186763 -8.540668
H -5.269328 -5.048904 -9.067971
H -6.400128 -5.214119 -4.335367
H -6.317764 -3.460816 -4.431666
H -2.255483 -3.936770 -5.823171
C 6.315430 -7.574698 -5.545190
C 5.497768 -6.547649 -6.314613
C 4.701471 -7.102100 -7.515184
C 3.676444 -8.186229 -7.115213
C 4.226249 -9.605959 -7.215915
C 4.024085 -5.946454 -8.282272
O 3.522614 -4.896611 -7.442965
C 2.233084 -4.995976 -7.018784
O 1.530856 -5.998261 -7.123985
C 1.717781 -3.701408 -6.467682
C 2.457000 -2.568276 -6.586464
H 6.944010 -7.073007 -4.801489
H 6.968986 -8.142099 -6.210845
H 5.668254 -8.267617 -5.003729
H 6.187558 -5.775246 -6.685978
H 4.820384 -6.050995 -5.612147
H 5.407701 -7.560843 -8.217924
H 2.811998 -8.147616 -7.786750
H 3.295427 -8.003992 -6.101977
H 4.564146 -9.819355 -8.234962
H 5.063297 -9.771768 -6.538038
H 3.444226 -10.328943 -6.970470
H 4.782857 -5.470354 -8.914387
H 3.248642 -6.304157 -8.972687
H 3.467854 -2.599079 -6.998035
C -1.720983 5.114517 -7.519493
C -1.885588 3.607518 -7.684507
C -2.837989 2.958072 -6.648671
C -4.312805 2.958005 -7.090005
C -4.944536 4.337814 -7.203375
C -2.417953 1.499459 -6.365720
O -1.083449 1.533717 -5.857771
C -0.572125 0.360118 -5.397571
O -1.162574 -0.706870 -5.356398
C 0.883089 0.545863 -5.033988
C 1.232823 1.775632 -4.599530
H -0.908762 5.473297 -8.160904
H -2.621884 5.664566 -7.797510
H -1.463916 5.371872 -6.486091
H -0.880273 3.183223 -7.590079
H -2.216141 3.379253 -8.704798
H -2.744664 3.509721 -5.701443
H -4.420228 2.436315 -8.048715
H -4.897016 2.386480 -6.356767
H -6.037569 4.246881 -7.258988
H -4.618362 4.851350 -8.112226
H -4.706836 4.961066 -6.333777
H -2.439930 0.903796 -7.284924
H -3.079689 1.051951 -5.616163
H 0.412204 2.488138 -4.511633
C 8.078359 3.637098 -1.879619
C 8.848151 4.138853 -3.086465
C 7.966486 4.708047 -4.215550
C 8.846768 5.243822 -5.367223
C 9.675290 4.197923 -6.097663
C 6.918999 3.704299 -4.747526
O 5.680327 3.762541 -4.014569
C 4.856643 4.777780 -4.393694
O 5.141480 5.663619 -5.181011
C 3.546780 4.680403 -3.705342
C 3.185817 5.621669 -2.802609
H 7.543414 2.716506 -2.116538
H 7.361194 4.380512 -1.523465
H 8.770249 3.415770 -1.061544
H 9.539286 4.923957 -2.751621
H 9.472810 3.320684 -3.460400
H 7.439674 5.578384 -3.801812
H 8.198031 5.741729 -6.098059
H 9.518750 6.018419 -4.979427
H 9.057422 3.367197 -6.454734
H 10.456300 3.790273 -5.446635
H 10.173267 4.643140 -6.966142
H 6.706144 3.856239 -5.815202
H 7.290583 2.676556 -4.653939
H 2.158645 5.611631 -2.429009
C -7.270476 3.006861 4.602071
C -6.384566 3.491514 5.740289
C -6.216810 5.024466 5.771032
C -7.540524 5.804181 5.896885
C -8.321500 5.547849 7.178306
C -5.208753 5.463690 6.843103
O -4.023907 4.664293 6.751916
C -2.832375 5.288511 6.636064
O -2.621818 6.484274 6.572793
C -1.784930 4.231361 6.725969
C -1.544948 3.416096 5.677833
H -7.184593 1.921127 4.490707
H -8.323691 3.242591 4.789577
H -6.972748 3.463603 3.651625
H -5.402886 3.022317 5.600697
H -6.773974 3.117104 6.695969
H -5.779800 5.298110 4.800703
H -8.184229 5.578458 5.039026
H -7.328169 6.878002 5.835284
H -9.267721 6.103171 7.153671
H -8.562408 4.487707 7.298863
H -7.766668 5.877804 8.059517
H -5.611334 5.307128 7.844661
H -4.987638 6.532258 6.735096
H -0.854448 2.596148 5.840669
C 5.022313 1.500758 5.197405
C 3.663184 1.164342 4.594263
C 2.833678 2.402570 4.187552
C 2.000267 2.996933 5.329946
C 2.797919 3.506864 6.523006
C 1.983869 2.081516 2.925539
O 0.559397 2.111385 3.105931
C -0.047995 0.989863 3.563592
O 0.527255 -0.005691 3.951570
C -1.548334 1.202231 3.571279
C -2.449124 0.208910 3.733362
H 5.644000 0.597134 5.231103
H 4.946794 1.876058 6.218012
H 5.549726 2.242776 4.592712
H 3.869729 0.548081 3.708516
H 3.093048 0.529410 5.284019
H 3.555943 3.169205 3.866759
H 1.294654 2.248908 5.704471
H 1.416506 3.846044 4.940830
H 3.648053 4.114941 6.203345
H 3.158426 2.681109 7.138410
H 2.167025 4.126995 7.176436
H 2.179685 2.874201 2.188275
H 2.274615 1.149407 2.434816
H -3.513417 0.463566 3.689643
C -6.980432 0.791287 -2.664246
C -6.506549 1.463571 -1.381490
C -5.146857 0.971020 -0.840563
C -3.982513 1.134628 -1.842366
C -3.790546 2.565806 -2.326472
C -5.256035 -0.494218 -0.400760
O -4.139310 -0.897466 0.413904
C -4.457379 -1.274705 1.674409
O -5.470163 -0.976895 2.288834
C -3.559886 -2.358755 2.144165
C -3.679174 -3.570800 1.557278
H -7.045317 -0.295277 -2.556288
H -7.980899 1.156496 -2.933458
H -6.314281 1.011484 -3.504818
H -6.470919 2.546984 -1.542620
H -7.271189 1.305690 -0.609921
H -4.902756 1.570663 0.046447
H -3.048779 0.808842 -1.368594
H -4.130003 0.486304 -2.715995
H -3.646606 3.234542 -1.475169
H -2.908531 2.639464 -2.973601
H -4.648098 2.919895 -2.909253
H -5.252718 -1.152160 -1.278372
H -6.208849 -0.666595 0.116419
H -3.131262 -4.420105 1.954582
C 0.323850 -5.892022 4.291379
C -0.036667 -5.362462 2.905218
C 0.313825 -6.356659 1.788908
C -0.510325 -7.657384 1.803799
C -2.028069 -7.513824 1.926971
C 0.309307 -5.676076 0.415065
O -0.986798 -5.395916 -0.114688
C -1.349809 -4.095885 -0.160472
O -0.825991 -3.164045 0.423757
C -2.423966 -3.964743 -1.185320
C -1.853151 -3.874623 -2.403797
H -0.249063 -6.790388 4.534194
H 0.110438 -5.141738 5.055676
H 1.391604 -6.125762 4.346034
H 0.509026 -4.423304 2.746441
H -1.099222 -5.100869 2.879615
H 1.361141 -6.656537 1.957085
H -0.161605 -8.274134 2.648569
H -0.291524 -8.235273 0.899881
H -2.458027 -6.944895 1.100980
H -2.312350 -7.033394 2.867330
H -2.491272 -8.507316 1.913555
H 0.778093 -6.363668 -0.308042
H 0.935046 -4.782647 0.438722
H -0.760424 -3.845974 -2.422343
C 3.991560 -7.321802 -0.789628
C 4.545232 -6.625722 -2.026026
C 3.630974 -5.544803 -2.644586
C 3.331547 -4.439160 -1.613632
C 2.708126 -3.182136 -2.192816
C 2.356981 -6.172433 -3.246667
O 1.666537 -5.216908 -4.067491
C 0.339075 -5.435896 -4.238308
O -0.293257 -6.349974 -3.720845
C -0.301357 -4.358902 -5.064249
C 0.327273 -3.645878 -6.021862
H 4.693586 -8.086792 -0.441982
H 3.041401 -7.823206 -0.998639
H 3.836927 -6.618646 0.035645
H 5.500805 -6.160348 -1.758605
H 4.772988 -7.379237 -2.784567
H 4.184652 -5.075209 -3.466773
H 4.270264 -4.146845 -1.121608
H 2.677900 -4.823265 -0.830895
H 1.681910 -3.342261 -2.526960
H 2.666959 -2.409151 -1.420401
H 3.302595 -2.798818 -3.025800
H 2.628437 -7.018961 -3.888494
H 1.707066 -6.537437 -2.449119
H -0.253690 -2.898390 -6.562410
C 2.568959 4.602840 -10.736193
C 1.945703 3.229433 -10.554964
C 2.213134 2.606949 -9.171386
C 3.710611 2.448276 -8.820558
C 4.480902 1.492919 -9.722088
C 1.445657 1.278933 -9.069234
O 1.730806 0.676285 -7.800103
C 1.408230 -0.630777 -7.723740
O 0.838942 -1.284151 -8.585933
C 1.916199 -1.229382 -6.445104
C 1.738345 -0.618896 -5.250829
H 3.660467 4.551369 -10.749873
H 2.247458 5.037839 -11.689050
H 2.258944 5.278688 -9.932859
H 0.862196 3.321293 -10.693819
H 2.304198 2.560972 -11.349723
H 1.793101 3.278841 -8.409064
H 4.199975 3.426945 -8.839108
H 3.804969 2.096898 -7.783881
H 5.534504 1.472063 -9.424752
H 4.436920 1.803379 -10.769599
H 4.100074 0.470570 -9.642826
H 1.737865 0.611069 -9.889671
H 0.369258 1.459560 -9.133275
H 2.106261 -1.087107 -4.338262
C 2.262864 0.366606 -0.457249
C 3.668622 -0.068915 -0.071666
C 4.678678 -0.066292 -1.239560
C 5.982935 -0.799878 -0.853488
C 6.819883 -0.119623 0.221562
C 4.986310 1.341519 -1.767263
O 3.848004 1.949594 -2.398101
C 3.637069 1.610917 -3.698427
O 4.249190 0.766352 -4.334855
C 2.492084 2.401358 -4.213309
C 2.527232 3.757214 -4.178264
H 1.558019 0.105619 0.340478
H 1.919493 -0.120376 -1.372533
H 2.204220 1.448494 -0.590232
H 3.601371 -1.089787 0.331906
H 4.030767 0.563905 0.745445
H 4.226470 -0.639487 -2.054372
H 6.603210 -0.911294 -1.755760
H 5.740795 -1.817331 -0.525782
H 7.173047 0.861378 -0.103090
H 6.258030 -0.001413 1.151260
H 7.703743 -0.732009 0.440748
H 5.823150 1.315678 -2.477873
H 5.279275 2.006578 -0.947787
H 1.637833 4.301028 -4.522461
C 2.960267 7.259381 3.939444
C 3.410808 7.749090 2.569399
C 2.333271 8.553517 1.807741
C 1.773417 9.756283 2.596354
C 2.814781 10.784648 3.014537
C 2.826100 8.988957 0.414495
O 3.369200 7.857748 -0.285085
C 3.241858 7.868052 -1.639411
O 2.638032 8.692308 -2.310964
C 3.967202 6.696995 -2.214090
C 5.221598 6.543039 -1.905802
H 3.716139 6.583160 4.364024
H 2.831213 8.090858 4.641768
H 2.017521 6.708570 3.872275
H 3.675988 6.860703 1.980521
H 4.332519 8.336539 2.672470
H 1.495878 7.859879 1.643434
H 1.249588 9.398956 3.491272
H 1.011510 10.258013 1.983408
H 3.306998 11.237453 2.149441
H 2.337228 11.591372 3.581894
H 3.582598 10.337740 3.655305
H 1.985793 9.434876 -0.136501
H 3.623782 9.731752 0.493987
H 6.249807 6.472327 -1.643273
