688
Molecule ID: homopoly_87274
O 2.927875 -8.320271 -2.262168
C 3.351465 -7.664181 -1.304467
O 4.693817 -7.437895 -1.009178
C 5.584774 -8.092180 -1.894280
C 6.984832 -7.818569 -1.401230
C 7.420293 -6.373939 -1.608460
F 6.491426 -5.443406 -1.272478
F 7.878039 -6.164126 -2.873776
C 8.564822 -6.121790 -0.583629
F 9.576320 -6.989641 -0.865960
F 8.042233 -6.461643 0.664829
C 8.966069 -4.665297 -0.670624
F 7.863292 -3.885765 -0.505236
F 9.409882 -4.433393 -1.948777
C 10.023173 -4.210329 0.313808
F 11.113311 -5.036386 0.249204
F 10.463667 -2.978318 -0.145214
C 9.498643 -4.016548 1.725293
F 8.980845 -5.165576 2.248192
F 8.486358 -3.055352 1.697643
C 10.535939 -3.461133 2.688090
F 11.059206 -2.291890 2.214711
F 11.556486 -4.347845 2.898080
C 9.809417 -3.158990 3.999868
F 8.852048 -2.209755 3.800020
F 9.201111 -4.282251 4.458864
C 10.759661 -2.650667 5.067304
F 11.653289 -3.646566 5.439834
F 11.576163 -1.679710 4.447068
C 10.065762 -1.978957 6.226828
F 9.386011 -0.885162 5.772345
F 11.001586 -1.497840 7.100128
C 9.091158 -2.842097 6.989047
F 8.564010 -2.109342 8.039667
F 8.011117 -3.230233 6.245117
F 9.681016 -3.951062 7.561668
C 2.389832 -7.204415 -0.280170
C 1.199116 -7.639493 0.013223
H 5.475979 -7.700375 -2.908776
H 5.421092 -9.205118 -1.918567
H 7.713553 -8.457751 -1.941247
H 7.102401 -8.058208 -0.332602
H 1.002959 -8.690042 -0.366034
O -3.036553 -6.879905 2.717484
C -1.820593 -6.798180 2.747344
O -1.101805 -7.709597 3.480059
C -1.886635 -8.449298 4.480623
C -1.582468 -9.867241 4.499333
C -0.089334 -10.184591 4.852076
F 0.236746 -9.462287 5.995592
F 0.691460 -9.806073 3.810266
C 0.020860 -11.668895 5.177826
F -0.864829 -11.861207 6.258491
F -0.545007 -12.382218 4.126681
C 1.354765 -12.145055 5.649060
F 1.661807 -11.391305 6.771618
F 1.128590 -13.407396 6.165649
C 2.514914 -12.233188 4.762194
F 3.571802 -12.580107 5.555756
F 2.854662 -11.082520 4.113119
C 2.438654 -13.365981 3.732811
F 1.381944 -13.208069 2.861481
F 2.238889 -14.536790 4.402251
C 3.753237 -13.469179 2.986399
F 4.018882 -12.342301 2.235647
F 4.736624 -13.532731 3.975368
C 3.932741 -14.711741 2.169330
F 5.166031 -14.623866 1.584080
F 4.003834 -15.767421 3.024907
C 2.943934 -15.035895 1.066789
F 3.346377 -16.281471 0.562141
F 1.661897 -15.207056 1.514402
C 2.962576 -14.108008 -0.097324
F 2.647555 -12.842930 0.284469
F 4.158011 -14.119161 -0.743913
C 1.880736 -14.579450 -1.074011
F 1.838483 -13.763540 -2.193653
F 0.627506 -14.507150 -0.503205
F 2.077130 -15.879058 -1.467558
C -1.079671 -5.684743 2.136458
C -1.721685 -4.507313 2.129494
H -2.966630 -8.279603 4.393518
H -1.583819 -7.998661 5.452579
H -2.183639 -10.409236 5.280835
H -1.792148 -10.369120 3.598873
H -2.674868 -4.534527 2.607203
O -4.600705 -3.045438 2.105529
C -4.448225 -3.234675 0.921122
O -5.176009 -4.217778 0.264238
C -6.303508 -4.858482 0.934132
C -5.855249 -6.274873 1.242694
C -6.892973 -7.188373 1.922837
F -8.079531 -7.273238 1.239339
F -7.153988 -6.794440 3.194777
C -6.315331 -8.611049 1.919744
F -5.094404 -8.644278 2.568252
F -6.052770 -8.917711 0.608954
C -7.273086 -9.561610 2.541023
F -7.512886 -9.142447 3.850009
F -8.492481 -9.460510 1.895249
C -6.809069 -11.023444 2.577051
F -7.803193 -11.710204 3.202875
F -5.731302 -11.114329 3.414821
C -6.494779 -11.643201 1.243258
F -7.552752 -11.452257 0.424575
F -5.329366 -11.109327 0.758698
C -6.299787 -13.120333 1.424034
F -7.429063 -13.673004 1.994030
F -5.219637 -13.451549 2.205286
C -6.200161 -13.870003 0.093561
F -7.278876 -13.592644 -0.693395
F -6.296266 -15.228113 0.379176
C -4.900564 -13.723448 -0.680532
F -3.850478 -14.201372 0.064655
F -4.569514 -12.454520 -1.051899
C -5.049247 -14.582068 -1.964204
F -6.133720 -14.112007 -2.668350
F -5.336989 -15.877776 -1.594360
C -3.800611 -14.543757 -2.828680
F -3.504126 -13.275124 -3.189986
F -2.753960 -15.096376 -2.185396
F -4.026374 -15.260557 -3.944479
C -3.205346 -2.810151 0.170220
C -3.194524 -2.303717 -1.061097
H -7.239156 -4.889877 0.311393
H -6.589434 -4.377910 1.876567
H -5.493996 -6.778292 0.337250
H -4.998539 -6.212026 1.929708
H -2.103363 -1.937392 -1.360572
O -2.548140 1.319443 0.241330
C -3.283865 1.033932 -0.763607
O -4.334475 1.902512 -1.071635
C -4.365690 3.195818 -0.443693
C -5.674710 3.332491 0.367088
C -5.739684 4.596492 1.193242
F -4.554906 4.800679 1.875878
F -6.667698 4.292471 2.281790
C -6.347294 5.834211 0.609829
F -7.720675 5.704599 0.545079
F -5.963494 5.972032 -0.710731
C -5.920426 7.089741 1.315603
F -4.542564 7.227572 1.145855
F -6.492221 8.155861 0.656659
C -6.200898 7.229559 2.811584
F -5.668933 6.176271 3.534439
F -7.542592 7.359350 3.073344
C -5.491255 8.477354 3.328119
F -4.149590 8.377276 3.037825
F -6.024101 9.572070 2.720794
C -5.623445 8.551281 4.843648
F -5.162560 7.394432 5.402658
F -6.903265 8.726732 5.249221
C -4.747962 9.681790 5.340960
F -5.171030 10.846181 4.759662
F -3.458052 9.451122 4.927455
C -4.783543 9.786855 6.847885
F -4.412402 8.620920 7.451737
F -6.024381 10.123144 7.308240
C -3.786851 10.835740 7.273806
F -2.518748 10.541724 6.869499
F -4.084515 12.074811 6.800782
C -3.754509 10.889632 8.793043
F -3.353367 9.686613 9.332895
F -2.850718 11.866292 9.194918
F -4.956088 11.225656 9.369414
C -2.713727 0.114670 -1.757623
C -1.359410 0.327644 -1.844058
H -3.437150 3.440620 0.156672
H -4.390973 4.025050 -1.218536
H -5.697858 2.522180 1.055312
H -6.544432 3.311912 -0.243926
H -1.123632 1.409638 -1.717378
O 4.630058 -0.603899 -1.646597
C 3.433091 -0.859957 -1.460574
O 3.089014 -1.969797 -0.698008
C 4.158630 -2.753711 -0.123882
C 3.561047 -3.618064 0.950161
C 4.598583 -4.356711 1.774031
F 5.235906 -5.276640 0.996095
F 5.558347 -3.463126 2.200110
C 4.104161 -5.083031 3.053121
F 2.988086 -5.876378 2.746105
F 5.121599 -5.981523 3.360425
C 3.961143 -4.159701 4.237117
F 5.231802 -3.761215 4.595040
F 3.320051 -2.982616 3.879371
C 3.299227 -4.800452 5.450156
F 2.038504 -5.169762 5.108377
F 4.007984 -5.901277 5.846814
C 3.256400 -3.807831 6.578047
F 4.545980 -3.469690 6.906394
F 2.603641 -2.671071 6.211332
C 2.542217 -4.485429 7.744454
F 1.247451 -4.817053 7.373796
F 3.166000 -5.671426 8.067841
C 2.472726 -3.614577 8.981925
F 1.893327 -2.415354 8.687692
F 3.695346 -3.394166 9.544777
C 1.593591 -4.334174 9.993492
F 0.329632 -4.491291 9.494825
F 2.070618 -5.592956 10.252253
C 1.474599 -3.543247 11.288441
F 1.001546 -2.269456 10.972872
F 2.699259 -3.371172 11.904546
C 0.456749 -4.203334 12.172636
F 0.828250 -5.469928 12.450271
F -0.737159 -4.198056 11.532202
F 0.317917 -3.487938 13.316699
C 2.421352 0.010446 -2.032505
C 2.736811 0.819741 -3.011900
H 4.926588 -2.088834 0.296452
H 4.583115 -3.413375 -0.886831
H 2.908115 -3.078042 1.643967
H 2.947745 -4.423379 0.423704
H 3.752478 0.789768 -3.378601
O 3.399271 4.445052 -4.225066
C 3.286097 4.500642 -2.975646
O 4.357371 4.940213 -2.163243
C 5.509042 5.544568 -2.878938
C 6.086618 6.839185 -2.309290
C 5.288430 8.145306 -2.531767
F 4.985960 8.323518 -3.870100
F 6.209862 9.108875 -2.226383
C 4.043535 8.347150 -1.692320
F 4.445241 8.423555 -0.349081
F 3.200964 7.289697 -1.806743
C 3.355333 9.607765 -2.116435
F 4.193770 10.689465 -2.099941
F 2.931471 9.445509 -3.412716
C 2.161949 9.847417 -1.258452
F 2.565912 10.048876 0.068947
F 1.296026 8.781842 -1.280067
C 1.438047 11.094840 -1.675771
F 0.953217 10.940470 -2.961144
F 2.249835 12.207722 -1.652968
C 0.211740 11.361494 -0.768004
F -0.563177 10.232037 -0.796658
F 0.609708 11.533516 0.542210
C -0.589884 12.585481 -1.246565
F 0.320727 13.640954 -1.311098
F -1.007479 12.359059 -2.537339
C -1.722523 13.034812 -0.364322
F -1.259626 13.303062 0.889259
F -2.139439 14.221687 -0.874322
C -2.937912 12.139020 -0.342200
F -2.678068 10.865509 0.083001
F -3.500307 12.033402 -1.601949
C -3.987334 12.757464 0.552045
F -4.365103 13.993369 0.131146
F -5.109673 11.972520 0.565303
F -3.559380 12.873717 1.845758
C 2.202945 3.739817 -2.270962
C 1.662858 4.042080 -1.078354
H 5.253082 5.743812 -3.949643
H 6.300502 4.832013 -2.856107
H 7.028872 6.949843 -2.768488
H 6.195361 6.743302 -1.215418
H 0.923233 3.374233 -0.769560
O -0.914617 4.895368 -1.347276
C -1.109856 5.674666 -0.409767
O -1.737370 6.879588 -0.601922
C -2.040907 7.251448 -1.982050
C -3.527511 7.396172 -2.219500
C -3.801148 8.149205 -3.537994
F -3.750952 9.499614 -3.345739
F -2.804454 7.824725 -4.420395
C -5.127549 7.697962 -4.144457
F -4.892596 6.679976 -5.053512
F -5.953493 7.141543 -3.193878
C -5.783527 8.841466 -4.841715
F -6.495495 8.457468 -5.957342
F -4.830390 9.711145 -5.311436
C -6.723569 9.624484 -3.905340
F -6.267182 9.659484 -2.626835
F -6.779306 10.938994 -4.321827
C -8.158398 9.096664 -3.936862
F -8.205664 7.739061 -3.814018
F -8.773677 9.448564 -5.118638
C -8.905812 9.695761 -2.759030
F -8.173102 9.373266 -1.632526
F -8.916714 11.060551 -2.902343
C -10.303623 9.131128 -2.596656
F -10.349482 7.846804 -3.062334
F -10.586270 9.073605 -1.262014
C -11.385044 9.980328 -3.261030
F -10.951039 10.483680 -4.438577
F -12.460440 9.179182 -3.557214
C -11.883071 11.113113 -2.364375
F -12.955620 10.698193 -1.603072
F -10.915227 11.511971 -1.470369
C -12.317453 12.282900 -3.214935
F -13.331335 11.921059 -4.035728
F -11.308145 12.765137 -3.974733
F -12.753467 13.290929 -2.404032
C -0.321426 5.543999 0.872940
C -0.958185 5.696867 2.047954
H -1.706547 6.494687 -2.695496
H -1.510465 8.183232 -2.233121
H -4.118540 7.846973 -1.443193
H -3.981444 6.404811 -2.423893
H -2.021487 6.053287 2.000608
O -2.386593 5.197769 6.310195
C -1.238387 5.434973 6.661240
O -0.687986 4.849438 7.814890
C -1.471938 4.320367 8.896054
C -2.991381 4.055746 8.721765
C -3.872166 5.286957 8.951370
F -3.308455 6.117922 9.884749
F -4.025671 5.990127 7.761212
C -5.228467 4.840096 9.419824
F -5.098533 3.756109 10.243539
F -5.848514 5.819284 10.104578
C -6.029222 4.522007 8.184042
F -6.568329 5.703903 7.705094
F -5.194974 4.040232 7.185809
C -7.131321 3.476037 8.375133
F -7.228800 2.686134 7.256243
F -6.717301 2.612223 9.374231
C -8.468628 4.068959 8.759932
F -8.250497 5.193587 9.494993
F -9.107281 3.193130 9.582091
C -9.290250 4.317566 7.494567
F -8.770726 5.266650 6.735061
F -9.272204 3.136861 6.767044
C -10.762316 4.543460 7.842231
F -11.164653 3.605332 8.729499
F -11.525209 4.391521 6.709457
C -11.089246 5.897136 8.419541
F -12.461064 5.956569 8.535911
F -10.588957 6.086394 9.677462
C -10.671257 7.076405 7.539401
F -10.744835 6.754636 6.193708
F -9.357991 7.443983 7.817115
C -11.571752 8.254814 7.802512
F -11.878063 8.306846 9.113550
F -12.681413 8.146683 7.038854
F -10.937125 9.392837 7.446700
C -0.199334 5.978618 5.804133
C 0.728851 6.854899 6.301758
H -1.056588 3.308835 9.135815
H -1.245455 4.896312 9.817831
H -3.202598 3.511770 7.792928
H -3.255617 3.352085 9.527351
H 0.684110 6.959648 7.402966
O -2.084266 -6.202672 -0.302187
C -1.252297 -7.123390 -0.253841
O -1.499950 -8.364790 -0.611089
C -2.751729 -8.880586 -1.155605
C -3.595771 -7.926938 -1.960517
C -4.746727 -8.626332 -2.611713
F -5.337268 -9.523825 -1.734763
F -4.277393 -9.346379 -3.695870
C -5.845027 -7.690206 -3.174838
F -6.226560 -6.808456 -2.201326
F -5.345074 -6.977639 -4.212346
C -7.020859 -8.493293 -3.680210
F -7.216591 -9.582847 -2.925830
F -6.691043 -8.855930 -4.943293
C -8.223244 -7.559990 -3.788690
F -8.977364 -7.962814 -4.825718
F -7.685438 -6.334739 -4.172873
C -9.115149 -7.276850 -2.619470
F -10.065780 -6.387762 -3.093129
F -8.459857 -6.518211 -1.637430
C -9.898796 -8.371969 -1.908791
F -10.381167 -7.805071 -0.772323
F -9.166616 -9.460066 -1.535707
C -11.095775 -8.889454 -2.692764
F -10.723599 -9.671396 -3.726264
F -11.862594 -7.833800 -3.117389
C -11.890857 -9.677139 -1.666820
F -12.457993 -8.798463 -0.777118
F -11.053395 -10.475689 -0.949862
C -12.969228 -10.520020 -2.327816
F -14.038995 -10.663330 -1.487634
F -13.382754 -9.896965 -3.455959
C -12.462648 -11.927510 -2.637631
F -11.894730 -12.531230 -1.558786
F -11.538377 -11.902050 -3.628892
F -13.501955 -12.728143 -3.032237
C 0.086392 -6.883765 0.392935
C 0.116696 -5.974856 1.399716
H -2.478946 -9.762209 -1.844128
H -3.308174 -9.362299 -0.340084
H -2.990487 -7.499066 -2.744665
H -3.998575 -7.196410 -1.301344
H 1.008823 -5.649571 1.882200
O 0.619107 -3.268445 3.178832
C 0.111870 -2.679301 2.185500
O 1.011774 -1.841156 1.528813
C 1.080237 -0.487673 1.909403
C 2.567753 0.131735 1.803701
C 2.862722 1.155758 2.911447
F 1.875137 0.987079 3.879844
F 2.668831 2.417897 2.315999
C 4.186638 1.035425 3.555574
F 4.426688 -0.310247 3.741501
F 4.090274 1.596859 4.828290
C 5.413580 1.713986 2.917595
F 6.417776 1.652771 3.840386
F 5.131282 3.023609 2.723418
C 5.883939 1.062700 1.616940
F 5.064971 1.364454 0.592201
F 5.863339 -0.293781 1.784042
C 7.270984 1.560866 1.304659
F 7.288562 2.936972 1.276387
F 8.158077 1.089393 2.226489
C 7.753397 1.107250 -0.115663
F 7.707906 -0.260826 -0.122088
F 6.907786 1.632777 -1.025949
C 9.177708 1.580363 -0.295149
F 9.314280 2.901985 -0.000445
F 9.976589 0.876053 0.561320
C 9.750046 1.347214 -1.710697
F 11.094918 1.626667 -1.638698
F 9.642196 0.063753 -2.091490
C 9.172414 2.274528 -2.738975
F 8.751100 3.448616 -2.164700
F 8.092206 1.706103 -3.385042
C 10.192139 2.654564 -3.829859
F 9.560303 3.431200 -4.768242
F 10.666102 1.544961 -4.465844
F 11.224044 3.386103 -3.338895
C -1.207971 -3.200716 1.678095
C -1.931701 -2.399740 0.862043
H 0.486295 0.256409 1.281323
H 0.766562 -0.364396 2.941304
H 3.434011 -0.574708 1.842400
H 2.656634 0.683994 0.839612
H -1.526773 -1.433016 0.554144
O -6.030130 -3.084318 -2.274056
C -5.171105 -2.425158 -2.870917
O -5.339388 -2.033720 -4.202877
C -6.543422 -2.498009 -4.792689
C -6.677024 -2.057349 -6.268854
C -6.321569 -0.664761 -6.618960
F -5.007508 -0.390646 -6.279839
F -7.160565 0.153189 -5.922682
C -6.558402 -0.336275 -8.063456
F -7.903340 -0.183894 -8.325838
F -6.088413 -1.361221 -8.877125
C -5.855990 0.963996 -8.420703
F -6.606334 1.714804 -9.322465
F -5.754819 1.718104 -7.293255
C -4.480568 0.750412 -9.086207
F -4.595641 -0.249527 -9.996645
F -3.557518 0.373805 -8.145236
C -4.080817 2.011156 -9.813458
F -4.303707 3.033714 -8.940713
F -4.898967 2.246352 -10.893742
C -2.641390 1.948980 -10.268777
F -2.081083 3.171253 -10.023195
F -1.938529 0.999377 -9.599219
C -2.518905 1.723373 -11.768492
F -3.563471 0.920346 -12.182398
F -2.628106 2.877166 -12.497170
C -1.234243 1.023320 -12.177428
F -0.990943 -0.063951 -11.355777
F -1.462358 0.456743 -13.440982
C -0.027167 1.920960 -12.329650
F -0.014165 2.915975 -11.409278
F -0.042941 2.494765 -13.562689
C 1.244779 1.127586 -12.189127
F 1.706862 1.162762 -10.893871
F 2.244392 1.625802 -12.961467
F 1.085995 -0.200897 -12.497885
C -3.931814 -1.896501 -2.241190
C -3.624235 -0.663688 -2.537838
H -6.667735 -3.581175 -4.744231
H -7.414769 -2.029739 -4.259664
H -7.734062 -2.226450 -6.580053
H -6.077802 -2.740370 -6.909276
H -4.167836 -0.180700 -3.389512
O -1.027108 -2.276133 -3.482794
C -0.072446 -1.872363 -2.795493
O 0.985298 -2.699651 -2.582633
C 1.071474 -3.993535 -3.159526
C 2.477676 -4.662869 -3.104230
C 3.583808 -4.121810 -4.034005
F 4.760100 -4.326117 -3.338915
F 3.391898 -2.795136 -4.179600
C 3.742416 -4.814118 -5.330524
F 3.154454 -4.052987 -6.321105
F 3.208411 -6.052844 -5.323918
C 5.216730 -4.995517 -5.713899
F 5.647528 -6.258671 -5.413906
F 6.014184 -4.103110 -5.020747
C 5.473261 -4.757903 -7.162320
F 4.968785 -3.536808 -7.499203
F 6.829903 -4.658306 -7.304193
C 4.934925 -5.830758 -8.085678
F 3.642881 -6.142367 -7.764630
F 5.644424 -6.999672 -7.996422
C 4.967408 -5.374808 -9.516498
F 4.308836 -4.200161 -9.666647
F 4.280078 -6.286867 -10.295250
C 6.378485 -5.203395 -10.027980
F 6.595316 -3.867826 -10.196672
F 7.286062 -5.676822 -9.132242
C 6.539584 -5.892388 -11.332916
F 5.507654 -5.439277 -12.130963
F 6.381590 -7.247855 -11.171650
C 7.893512 -5.589355 -11.946538
F 8.768661 -6.536246 -11.508847
F 8.365808 -4.391080 -11.499409
C 7.679630 -5.637451 -13.433852
F 8.755496 -6.152984 -14.094013
F 7.413514 -4.380025 -13.926541
F 6.610388 -6.433433 -13.743672
C -0.203722 -0.526786 -2.105940
C 0.977106 0.123422 -1.800465
H 0.684274 -4.123373 -4.139720
H 0.427131 -4.641831 -2.522590
H 2.839590 -4.632478 -2.069177
H 2.338679 -5.706103 -3.385614
H 0.769243 1.114966 -1.383455
O -0.612790 1.181621 -4.187844
C 0.615269 1.057402 -4.498190
O 0.999373 0.383232 -5.652900
C -0.097075 0.200686 -6.595728
C 0.081878 -1.010985 -7.510938
C -0.254831 -2.356729 -6.901696
F -1.552670 -2.287058 -6.457794
F 0.555428 -2.625355 -5.812359
C -0.160698 -3.415137 -7.979661
F 1.074470 -3.413327 -8.589883
F -1.072949 -3.065676 -8.953822
C -0.497541 -4.830846 -7.498189
F 0.538878 -5.309023 -6.779614
F -1.636283 -4.816827 -6.751085
C -0.786468 -5.749486 -8.695578
F -0.396082 -5.163738 -9.848442
F -2.132417 -6.010017 -8.838988
C -0.034030 -7.086849 -8.631956
F 1.321480 -6.849790 -8.822338
F -0.432542 -7.805982 -9.728198
C -0.270431 -7.893032 -7.364688
F -1.116563 -7.266374 -6.498652
F 0.940141 -8.082414 -6.744359
C -0.849818 -9.267809 -7.660575
F -1.881671 -9.169499 -8.571334
F -1.393560 -9.748636 -6.510227
C 0.208976 -10.239230 -8.184336
F -0.207579 -10.945760 -9.288792
F 1.314435 -9.538271 -8.576418
C 0.638674 -11.220711 -7.117020
F 1.822280 -11.776836 -7.484585
F 0.828304 -10.588354 -5.913404
C -0.366864 -12.363390 -6.967632
F 0.025568 -13.478648 -7.680348
F -1.620823 -12.040892 -7.419590
F -0.442607 -12.768316 -5.652052
C 1.677993 1.662946 -3.685012
C 1.369958 2.903109 -3.157361
H -1.084536 0.171424 -6.115005
H -0.018359 1.120293 -7.170451
H 1.041770 -1.037923 -8.010252
H -0.631084 -0.869549 -8.320079
H 0.379606 3.183706 -3.342633
O 4.167018 4.120006 0.259744
C 3.376102 5.019712 0.508652
O 3.745504 6.088980 1.262975
C 5.161423 6.129230 1.760353
C 5.299404 6.825305 3.063492
C 6.771089 6.987245 3.397983
F 7.568876 6.638800 2.314962
F 7.039026 8.299175 3.644102
C 7.206800 6.127536 4.580098
F 6.310830 6.235466 5.629082
F 7.187960 4.815756 4.180407
C 8.605996 6.552352 5.015837
F 9.294052 6.972372 3.929024
F 8.492494 7.641066 5.830395
C 9.308250 5.462335 5.776073
F 10.096379 6.029516 6.741946
F 8.387690 4.698493 6.440156
C 10.151202 4.570131 4.886778
F 9.470305 3.434822 4.553035
F 10.422301 5.208776 3.704113
C 11.510034 4.247133 5.507141
F 12.378243 3.908581 4.485064
F 12.045136 5.334287 6.131721
C 11.473061 3.052717 6.475675
F 10.459316 2.197208 6.083446
F 11.148513 3.507465 7.711677
C 12.818773 2.346821 6.407724
F 13.794141 3.274978 6.224012
F 12.813315 1.536799 5.325570
C 13.070500 1.627517 7.685744
F 13.743875 2.437179 8.571934
F 11.907603 1.265512 8.320039
C 13.935826 0.379305 7.471865
F 13.628647 -0.292583 6.323834
F 13.731289 -0.495823 8.520543
F 15.272669 0.665850 7.445858
C 2.016380 4.969539 -0.093635
C 1.108780 5.552427 0.822950
H 5.657284 5.140284 1.699421
H 5.654527 6.750467 0.980342
H 4.765096 6.303009 3.853275
H 4.868004 7.820191 2.966762
H 1.479697 6.228142 1.535834
O -1.223948 3.401320 4.821135
C -1.044136 3.810311 3.683441
O -1.171419 2.980422 2.569585
C -1.667754 1.672963 2.894629
C -3.163454 1.797840 3.199621
C -3.840400 0.520812 3.659394
F -3.752011 0.382973 5.003051
F -3.202292 -0.531746 3.080547
C -5.323175 0.497742 3.170439
F -5.294285 0.348277 1.801438
F -5.880572 1.700882 3.513446
C -6.168522 -0.592971 3.751350
F -6.833532 -0.140627 4.892336
F -5.379253 -1.632475 4.209786
C -7.134912 -1.202785 2.764825
F -6.455514 -1.431969 1.626096
F -7.486241 -2.410117 3.234149
C -8.412332 -0.450222 2.443332
F -9.483159 -1.319571 2.468104
F -8.666418 0.515579 3.389916
C -8.443275 0.142672 1.027344
F -7.896228 -0.777638 0.164915
F -7.745514 1.299033 1.061809
C -9.854666 0.463745 0.492152
F -10.674639 -0.602517 0.782736
F -10.365848 1.589280 1.049975
C -9.818271 0.560686 -1.011139
F -11.066210 0.877347 -1.460947
F -9.510772 -0.656859 -1.543537
C -8.865888 1.577123 -1.567364
F -7.562823 1.111052 -1.630048
F -8.883195 2.764628 -0.865207
C -9.293678 1.883356 -3.006394
F -9.714200 0.728924 -3.577251
F -10.301807 2.785223 -3.057387
F -8.262061 2.376705 -3.743427
C -0.641730 5.192252 3.377462
C -0.370021 6.096543 4.337045
H -1.167779 1.258654 3.752733
H -1.553639 1.004727 2.098996
H -3.810192 2.211436 2.379787
H -3.267858 2.489875 4.047839
H -0.193858 7.128102 3.908714
O 3.899375 8.352272 5.354947
C 2.795492 8.388688 5.954222
O 2.522897 9.276793 6.916252
C 3.489050 10.342887 7.136941
C 3.341991 11.239074 6.001464
C 4.382109 12.380454 5.867696
F 5.566038 11.858543 6.106559
F 4.080369 13.314281 6.825432
C 4.337687 13.108340 4.522582
F 3.037383 13.421707 4.250180
F 5.005449 14.290125 4.614172
C 4.909360 12.343038 3.351912
F 4.287109 12.831141 2.205372
F 4.643544 11.025882 3.362970
C 6.401505 12.581231 3.120515
F 6.656762 13.934157 3.091893
F 7.206419 12.078565 4.123204
C 6.795034 11.918334 1.794225
F 7.366635 10.695271 2.079651
F 5.648631 11.616820 1.094649
C 7.729134 12.758120 0.937329
F 7.209786 14.024987 0.877192
F 8.938471 12.779644 1.590865
C 7.814064 12.098932 -0.407451
F 6.571458 12.206135 -0.986502
F 8.034598 10.763947 -0.229432
C 8.802592 12.718841 -1.353963
F 9.140778 13.962610 -0.876002
F 8.204889 12.940800 -2.569941
C 10.080959 11.955804 -1.590947
F 10.970543 12.811505 -2.199440
F 10.682459 11.518033 -0.448434
C 9.924583 10.775315 -2.539807
F 11.127622 10.424479 -3.132853
F 9.059494 11.018142 -3.566906
F 9.468724 9.639115 -1.895042
C 1.759945 7.332671 5.527417
C 2.062285 6.748469 4.380094
H 4.558472 9.867633 7.121936
H 3.346670 10.730760 8.067532
H 2.294435 11.766452 6.077610
H 3.278939 10.740002 5.001265
H 2.622045 6.796716 3.506166
