896
Molecule ID: homopoly_85957
O 8.176004 3.060524 0.302577
C 7.761671 3.721777 1.257060
O 7.904545 5.070802 1.438268
C 8.582770 5.835340 0.412595
C 9.941908 5.311707 -0.052669
O 10.585528 6.299162 -0.837320
C 10.874181 4.880215 1.080949
C 12.044910 4.033308 0.565871
F 11.571995 3.187189 -0.396826
F 12.967321 4.832077 -0.018191
C 12.673214 3.203138 1.681500
F 11.674474 2.484890 2.278598
F 13.177646 4.006419 2.653269
C 13.755499 2.276024 1.137757
F 13.258445 1.601051 0.063043
F 14.822883 2.975833 0.672114
C 14.193105 1.293730 2.214538
F 13.083748 0.766814 2.798964
F 14.864081 1.924703 3.212462
C 15.035676 0.173435 1.621255
F 14.411331 -0.334988 0.523982
F 16.234414 0.640145 1.186333
C 15.217772 -0.950874 2.632152
F 13.994832 -1.322595 3.108096
F 15.924669 -0.529714 3.715465
C 15.884163 -2.158500 1.986361
F 17.177401 -1.873624 1.673761
F 15.273127 -2.443202 0.801775
C 15.797982 -3.371505 2.887265
F 14.496722 -3.574606 3.238569
F 16.478508 -3.161786 4.047305
C 16.317062 -4.614561 2.180058
F 17.643291 -4.482812 1.907195
F 15.692704 -4.780806 0.981927
C 16.088713 -5.866354 3.024964
F 16.910245 -5.841736 4.108881
F 14.819054 -5.839441 3.525164
C 16.225788 -7.178867 2.281066
F 15.317346 -7.194118 1.244641
C 17.596943 -7.419658 1.735303
F 17.918652 -6.499403 0.804408
F 18.548290 -7.378651 2.691363
F 17.697310 -8.619992 1.122530
C 15.919836 -8.315540 3.219419
F 15.959394 -9.515233 2.589581
F 16.791198 -8.379214 4.251177
F 14.680436 -8.199826 3.752734
C 7.049272 3.084607 2.334000
C 6.359707 2.432358 3.228445
H 7.900222 5.959422 -0.419028
H 8.714843 6.836801 0.839268
H 9.783431 4.464694 -0.724625
H 10.723714 7.126346 -0.317252
H 10.306075 4.289362 1.802615
H 11.267989 5.761938 1.623293
H 6.646024 1.389126 3.393931
O 7.459427 2.379383 6.037640
C 6.773900 1.369777 6.180725
O 7.279284 0.145210 6.497465
C 8.689021 0.042165 6.744126
C 9.394542 -0.764685 5.642698
O 10.799291 -0.735486 5.864768
C 9.062780 -0.248151 4.246902
C 9.790880 -0.956461 3.118311
F 11.108497 -0.665311 3.159933
F 9.668557 -2.301636 3.251995
C 9.204080 -0.526317 1.793600
F 7.905735 -0.952010 1.722501
F 9.125667 0.839607 1.758108
C 10.000997 -0.987725 0.585202
F 11.160940 -0.290384 0.506350
F 10.360753 -2.299179 0.689871
C 9.125764 -0.816652 -0.650849
F 8.173197 -1.807837 -0.599268
F 8.414530 0.338416 -0.582948
C 9.806197 -0.907442 -1.995948
F 10.603819 -2.005894 -2.061028
F 8.827567 -1.117428 -2.930725
C 10.573425 0.357255 -2.368772
F 11.662194 0.497527 -1.571600
F 9.797418 1.453491 -2.139371
C 10.990766 0.336567 -3.827558
F 9.892563 0.195819 -4.623617
F 11.773048 -0.748156 -4.072283
C 11.720499 1.612119 -4.195457
F 12.844921 1.746809 -3.441906
F 10.950827 2.694717 -3.919871
C 12.081210 1.602768 -5.677279
F 10.955682 1.421408 -6.425155
F 12.904879 0.560619 -5.964709
C 12.731651 2.912911 -6.102920
F 13.746726 3.194142 -5.234730
F 11.829095 3.918350 -5.951179
C 13.302436 2.933844 -7.502635
F 14.353159 2.051894 -7.571011
C 13.791800 4.320294 -7.795857
F 14.400947 4.391444 -9.005207
F 12.787891 5.225856 -7.815279
F 14.694227 4.742864 -6.880914
C 12.295277 2.599419 -8.558251
F 11.172727 3.344364 -8.456497
F 11.927425 1.298772 -8.493124
F 12.783244 2.781434 -9.809020
C 5.287822 1.311751 5.879612
C 4.621542 0.279298 6.439459
H 9.154786 1.027171 6.876940
H 8.803028 -0.473665 7.706236
H 9.075782 -1.809553 5.720016
H 11.113429 0.183670 5.853005
H 7.983734 -0.341794 4.097291
H 9.321000 0.815891 4.202055
H 5.186235 -0.396567 7.088855
O 4.036258 -2.488489 8.389746
C 2.985164 -2.943720 7.948072
O 2.106352 -3.673022 8.674283
C 2.384884 -3.770486 10.088078
C 3.237433 -4.997608 10.430579
O 3.368726 -5.067441 11.844215
C 4.621184 -4.917288 9.794412
C 5.559540 -6.064104 10.127950
F 4.849993 -7.226302 10.083771
F 6.016093 -5.946028 11.390493
C 6.721848 -6.156523 9.124642
F 6.180584 -6.486202 7.902613
F 7.527191 -7.206839 9.458482
C 7.561608 -4.902478 8.910714
F 8.374081 -5.121920 7.825546
F 6.761915 -3.866250 8.537747
C 8.445613 -4.498782 10.076942
F 7.727219 -4.400238 11.227018
F 9.389106 -5.446499 10.301486
C 9.082470 -3.147039 9.794311
F 9.463194 -3.056136 8.482181
F 8.134127 -2.170467 9.951484
C 10.293764 -2.820663 10.646400
F 10.692928 -1.557453 10.309236
F 11.324698 -3.642032 10.290974
C 10.097064 -2.922789 12.150084
F 9.857192 -4.213514 12.492384
F 9.006129 -2.215357 12.547009
C 11.344833 -2.425666 12.867418
F 12.437289 -3.117788 12.444544
F 11.580201 -1.128597 12.511198
C 11.284826 -2.484578 14.384640
F 10.240333 -1.705690 14.807979
F 12.399036 -1.874820 14.891663
C 11.159999 -3.850216 15.062246
F 9.908174 -4.326415 14.789584
F 11.159716 -3.636582 16.411409
C 12.181092 -4.913275 14.740379
F 12.106345 -5.205559 13.405367
C 11.871324 -6.154143 15.543582
F 10.627820 -6.619916 15.275164
F 12.731850 -7.160909 15.268607
F 11.932572 -5.937160 16.875411
C 13.578322 -4.509706 15.114304
F 14.475046 -5.499537 14.901156
F 13.989157 -3.467316 14.351127
F 13.689823 -4.128805 16.403608
C 2.490730 -2.653087 6.552570
C 1.445300 -3.358492 6.072939
H 2.839541 -2.845615 10.473018
H 1.420115 -3.842850 10.602776
H 2.754331 -5.912332 10.059967
H 2.682321 -5.680483 12.169221
H 4.487680 -4.888749 8.708308
H 5.099618 -3.984501 10.118875
H 1.030257 -4.174261 6.672060
O -2.420787 -3.804340 6.205380
C -2.731263 -3.070002 5.266536
O -3.883817 -3.202548 4.548818
C -4.773575 -4.187657 5.138079
C -6.237555 -3.903366 4.762754
O -7.053073 -3.805493 5.943944
C -6.807170 -4.985152 3.843150
C -8.177179 -4.609773 3.269180
F -9.141774 -4.798211 4.189125
F -8.174373 -3.279750 2.972511
C -8.482556 -5.384580 1.996281
F -7.379929 -5.239147 1.193150
F -8.559254 -6.716544 2.247185
C -9.741367 -4.901571 1.283292
F -10.857511 -5.359359 1.888959
F -9.842403 -3.540383 1.311568
C -9.674752 -5.336376 -0.167208
F -9.561551 -6.688105 -0.267559
F -8.525919 -4.836270 -0.698233
C -10.833824 -4.857718 -1.039308
F -11.202608 -3.589257 -0.714225
F -11.935329 -5.623205 -0.851269
C -10.371316 -4.860826 -2.495084
F -9.346712 -3.975140 -2.645332
F -9.848210 -6.073069 -2.823094
C -11.460966 -4.502827 -3.472877
F -12.353842 -5.519712 -3.561934
F -12.152596 -3.423352 -3.010054
C -10.874394 -4.162060 -4.826266
F -10.016091 -5.146186 -5.212961
F -10.123502 -3.032362 -4.701205
C -11.933372 -3.990647 -5.908876
F -12.518808 -5.184142 -6.172774
F -12.929021 -3.160140 -5.501780
C -11.278592 -3.412887 -7.172684
F -10.903849 -2.128789 -6.858426
F -10.104160 -4.066849 -7.411298
C -12.045467 -3.347303 -8.476721
F -11.298401 -2.558033 -9.329399
C -12.196938 -4.699386 -9.114129
F -12.932223 -5.552749 -8.374826
F -12.791493 -4.613348 -10.328550
F -10.993427 -5.284017 -9.318782
C -13.398449 -2.753733 -8.324576
F -14.020353 -2.595687 -9.515033
F -13.330533 -1.532482 -7.746902
F -14.207634 -3.510518 -7.550461
C -1.808395 -1.946865 4.841645
C -2.107326 -0.676743 4.473638
H -4.455218 -5.170359 4.791814
H -4.699770 -4.160212 6.224066
H -6.300742 -2.928901 4.274931
H -7.076815 -4.679446 6.387985
H -6.090370 -5.148039 3.016978
H -6.899962 -5.941681 4.382511
H -1.231893 -0.039017 4.320870
O -1.708562 -0.016074 1.228357
C -1.429547 0.963576 1.905983
O -0.177854 1.447787 2.162363
C 0.881782 0.917194 1.327997
C 2.148254 0.656599 2.148207
O 2.717888 1.897334 2.556703
C 3.179825 -0.178005 1.358280
C 4.010942 -1.049556 2.296766
F 4.822193 -0.259638 3.042085
F 3.148010 -1.636387 3.167659
C 4.804722 -2.160782 1.601737
F 5.628654 -1.628769 0.658831
F 3.943188 -2.963695 0.919565
C 5.595997 -2.952757 2.639308
F 6.519779 -2.117096 3.212117
F 4.796245 -3.326609 3.679720
C 6.339295 -4.180198 2.124276
F 7.221256 -4.545085 3.103016
F 7.098066 -3.894214 1.036516
C 5.399696 -5.349716 1.851045
F 4.507459 -5.466958 2.877936
F 4.642885 -5.110277 0.746783
C 6.130307 -6.672805 1.669590
F 6.818085 -6.669018 0.497952
F 7.050022 -6.863595 2.651747
C 5.123513 -7.813606 1.725068
F 4.520665 -7.827716 2.948681
F 4.128299 -7.613582 0.821193
C 5.769635 -9.161167 1.485836
F 6.905713 -9.270684 2.238432
F 6.182569 -9.240384 0.189282
C 4.873001 -10.346901 1.845215
F 5.578959 -11.496288 1.638419
F 4.601324 -10.326537 3.180346
C 3.566925 -10.394482 1.062266
F 3.850036 -10.084871 -0.239351
F 2.756862 -9.393824 1.503807
C 2.832860 -11.715185 1.097723
F 3.647450 -12.697989 0.595298
C 1.603456 -11.598528 0.254174
F 1.909789 -11.311476 -1.031881
F 0.764067 -10.630149 0.680820
F 0.894177 -12.748570 0.222712
C 2.375407 -12.087901 2.472393
F 3.422274 -12.309543 3.299795
F 1.623004 -11.118378 3.031557
F 1.645666 -13.224287 2.479933
C -2.466126 1.791249 2.604226
C -2.708243 3.032653 2.123122
H 1.101168 1.673460 0.575322
H 0.561056 -0.004857 0.839994
H 1.840989 0.138548 3.062667
H 3.042095 2.369116 1.765021
H 3.846190 0.461289 0.756402
H 2.650684 -0.838410 0.670041
H -3.467918 3.651279 2.592898
O -0.347677 1.838815 -1.282552
C -0.974633 2.636861 -1.960794
O -0.559172 3.223037 -3.111119
C 0.785381 2.951842 -3.490427
C 0.913023 2.993292 -5.014397
O 2.285178 3.049580 -5.370698
C 0.148103 4.169612 -5.592607
C 0.216870 4.273845 -7.104646
F 0.005822 3.045022 -7.634715
F -0.894110 5.000067 -7.460061
C 1.472283 4.963078 -7.672765
F 1.809993 5.986910 -6.816929
F 2.550013 4.137642 -7.675336
C 1.257140 5.572228 -9.047033
F 0.161501 6.379984 -9.028033
F 2.303043 6.404595 -9.338118
C 1.155594 4.540944 -10.137943
F 0.317146 3.542302 -9.787772
F 2.369419 3.966929 -10.342088
C 0.631731 5.169572 -11.412231
F 1.347792 6.283568 -11.741969
F -0.653044 5.595709 -11.219500
C 0.684259 4.174001 -12.558053
F 1.991184 3.929724 -12.866189
F 0.151671 2.975874 -12.199198
C -0.055272 4.715665 -13.765649
F -1.380413 4.864764 -13.487994
F 0.407329 5.963446 -14.056772
C 0.141037 3.798455 -14.949788
F -0.304922 2.544760 -14.675641
F 1.464070 3.671687 -15.228810
C -0.592884 4.333090 -16.160135
F -0.356707 5.674762 -16.290609
F -1.938749 4.210865 -15.995741
C -0.158056 3.685285 -17.478605
F 1.149611 4.046598 -17.680816
F -0.840059 4.297112 -18.500526
C -0.264442 2.190344 -17.632870
F 0.493665 1.582104 -16.667230
C -1.681732 1.718136 -17.556891
F -2.186502 1.892452 -16.312772
F -1.800899 0.402735 -17.836233
F -2.492690 2.386621 -18.402858
C 0.264922 1.794005 -18.978547
F -0.454837 2.303400 -20.002036
F 0.268035 0.449350 -19.130097
F 1.546256 2.196104 -19.156065
C -2.329570 3.164553 -1.637601
C -3.276988 3.173741 -2.621228
H 1.442076 3.699045 -3.019722
H 1.105152 1.962780 -3.146864
H 0.504463 2.065217 -5.428206
H 2.718304 3.789323 -4.903340
H 0.474956 5.108792 -5.129112
H -0.910025 4.068276 -5.338064
H -4.283100 3.503670 -2.362803
O -6.135722 1.506235 -4.035440
C -5.946908 1.588874 -5.246369
O -6.907766 1.447252 -6.185686
C -8.216484 1.200279 -5.630236
C -8.828315 2.466999 -4.988116
O -9.068409 3.406938 -6.036774
C -10.091138 2.104813 -4.214071
C -10.975077 3.304240 -3.891609
F -10.199373 4.318917 -3.411922
F -11.507506 3.772288 -5.054264
C -12.129378 3.033937 -2.919158
F -12.890466 4.162505 -2.814690
F -11.632623 2.807993 -1.666607
C -12.975866 1.854229 -3.353957
F -12.280384 0.699018 -3.139735
F -13.197888 1.887121 -4.699533
C -14.321814 1.814734 -2.643081
F -14.217589 2.100778 -1.319852
F -15.111680 2.797073 -3.170849
C -14.991699 0.459324 -2.852066
F -16.350805 0.605096 -2.904151
F -14.645067 -0.059105 -4.061285
C -14.672397 -0.501982 -1.713666
F -13.358486 -0.420466 -1.369074
F -15.358766 -0.110129 -0.599237
C -15.015777 -1.935942 -2.071506
F -16.264593 -2.027035 -2.582423
F -14.200870 -2.340417 -3.084441
C -14.833932 -2.839049 -0.849978
F -15.675724 -2.483224 0.155175
F -13.568460 -2.652624 -0.354948
C -14.970309 -4.324937 -1.165371
F -14.460186 -5.063907 -0.128923
F -14.155022 -4.619611 -2.214328
C -16.402779 -4.815865 -1.427917
F -17.218825 -3.740520 -1.574931
F -16.877080 -5.443554 -0.318492
C -16.518867 -5.703706 -2.647429
F -15.888199 -5.074118 -3.698219
C -15.932021 -7.060313 -2.406648
F -15.887586 -7.791463 -3.547105
F -16.634817 -7.782089 -1.506189
F -14.663703 -6.990159 -1.949416
C -17.957956 -5.897660 -3.005463
F -18.677912 -6.457055 -2.012542
F -18.098234 -6.682116 -4.099170
F -18.547275 -4.715854 -3.307311
C -4.572701 1.840744 -5.859246
C -4.308544 1.220318 -7.047292
H -8.835507 0.883217 -6.477972
H -8.163327 0.363944 -4.922010
H -8.114097 2.938596 -4.310188
H -8.927968 4.301023 -5.679829
H -9.795324 1.569720 -3.306579
H -10.682040 1.418144 -4.824685
H -5.115518 0.665709 -7.513876
O -2.878205 -0.236834 -10.955303
C -2.357587 -1.149450 -10.308587
O -2.294751 -2.416456 -10.778405
C -2.267718 -2.587072 -12.207814
C -3.646726 -2.543342 -12.905938
O -4.155484 -1.210658 -13.012469
C -4.748092 -3.390029 -12.275196
C -4.436581 -4.875599 -12.324596
F -3.403217 -5.159116 -11.490153
F -3.996483 -5.180614 -13.577820
C -5.649441 -5.744314 -11.987737
F -6.685859 -5.461829 -12.822821
F -6.112635 -5.440039 -10.740878
C -5.294160 -7.219503 -12.075245
F -4.458415 -7.497656 -11.020684
F -4.583142 -7.521026 -13.191095
C -6.514430 -8.114975 -12.009698
F -7.511331 -7.530006 -11.287704
F -6.148961 -9.216592 -11.256894
C -7.053726 -8.687995 -13.323407
F -8.070864 -9.540901 -12.930710
F -6.120219 -9.522610 -13.872453
C -7.656019 -7.812592 -14.420922
F -8.448552 -6.849000 -13.885515
F -8.503471 -8.604384 -15.158135
C -6.662711 -7.214915 -15.410320
F -5.691403 -8.136606 -15.700355
F -5.992970 -6.179453 -14.838644
C -7.274753 -6.788335 -16.737199
F -7.767819 -7.876381 -17.392436
F -6.251514 -6.337528 -17.523394
C -8.347250 -5.710249 -16.647386
F -7.905883 -4.688337 -15.867719
F -9.461143 -6.189661 -16.040343
C -8.679942 -5.179040 -18.044778
F -8.926191 -6.250965 -18.861068
F -7.564063 -4.588388 -18.556230
C -9.846751 -4.231294 -18.172370
F -11.003102 -4.917994 -17.907470
C -9.729416 -3.043834 -17.267373
F -8.517217 -2.452240 -17.359867
F -9.898083 -3.410299 -15.973990
F -10.662148 -2.097238 -17.518582
C -9.877975 -3.694374 -19.575718
F -8.852468 -2.853315 -19.831794
F -11.019556 -3.004754 -19.812036
F -9.822594 -4.678175 -20.504296
C -1.842299 -0.996967 -8.916250
C -0.984269 -1.837933 -8.265388
H -1.593645 -1.838480 -12.642110
H -1.802214 -3.565410 -12.387890
H -3.494596 -2.866864 -13.946405
H -3.864125 -0.691745 -12.234664
H -4.928960 -3.080665 -11.239865
H -5.686175 -3.201086 -12.818618
H -0.765546 -1.532462 -7.232922
O 4.007692 5.074135 4.185223
C 4.519000 4.215720 3.482634
O 4.648182 4.317061 2.131014
C 4.524162 5.567644 1.400195
C 5.005730 6.880324 2.065692
O 5.966636 6.670429 3.098187
C 3.831144 7.700615 2.604474
C 3.314805 8.705834 1.575716
F 3.426292 8.120341 0.340672
F 1.981521 8.868277 1.768513
C 4.044050 10.058206 1.599736
F 5.380323 9.851550 1.709865
F 3.861448 10.704573 0.414455
C 3.504905 10.928848 2.722281
F 2.220535 11.288166 2.423751
F 3.410046 10.224736 3.878930
C 4.351902 12.180101 2.943802
F 4.381575 12.885942 1.777974
F 5.640544 11.850062 3.213151
C 3.792583 13.073957 4.055486
F 4.118238 14.375281 3.802274
F 2.428564 13.034249 4.022465
C 4.278357 12.692467 5.460308
F 4.399212 11.347458 5.569232
F 3.332471 13.058969 6.381608
C 5.577154 13.396189 5.832910
F 6.517203 13.225775 4.863743
F 5.338834 14.747619 5.859408
C 6.149420 12.995703 7.185292
F 5.223520 13.135327 8.174485
F 7.125847 13.910159 7.477496
C 6.738220 11.588337 7.222934
F 7.414241 11.331032 6.072728
F 5.754144 10.666358 7.291738
C 7.696299 11.438281 8.403050
F 7.098882 11.890203 9.545599
F 8.738840 12.306138 8.193578
C 8.308304 10.084522 8.682585
F 9.314726 10.280480 9.610592
C 8.886620 9.457534 7.459570
F 7.928823 9.071274 6.585265
F 9.699916 10.314277 6.801769
F 9.622861 8.356911 7.743015
C 7.326545 9.110847 9.268373
F 7.938513 7.971330 9.671788
F 6.356938 8.739929 8.405972
F 6.709755 9.621036 10.355542
C 5.197277 2.966583 3.954757
C 4.692790 2.387576 5.068080
H 5.172923 5.407988 0.528689
H 3.509233 5.640915 1.016596
H 5.540834 7.456673 1.307147
H 5.507023 6.412034 3.918350
H 4.109647 8.184429 3.542627
H 3.011318 7.004463 2.864198
H 3.775166 2.777996 5.495300
O 1.270878 -0.556107 7.662874
C 2.148589 0.188501 7.246716
O 2.225805 1.507052 7.583184
C 1.129124 1.915850 8.425576
C -0.030128 2.511478 7.612015
O -0.701724 1.498118 6.849218
C -1.014059 3.170959 8.578027
C -2.030410 4.026397 7.841642
F -1.359805 4.810754 6.956324
F -2.829741 3.217080 7.092682
C -2.860880 4.896384 8.780285
F -2.028677 5.501646 9.678483
F -3.711454 4.131526 9.512817
C -3.581462 5.976421 8.001812
F -4.298136 5.440291 6.973957
F -2.659852 6.779021 7.395001
C -4.519017 6.779679 8.904601
F -5.667621 6.049736 9.051883
F -4.026731 6.912859 10.165723
C -4.823436 8.155215 8.316529
F -6.040370 8.590980 8.747301
F -4.917139 8.064467 6.966195
C -3.777730 9.174086 8.752550
F -3.921362 9.440209 10.081715
F -2.533747 8.620015 8.651705
C -3.782217 10.472757 7.969732
F -3.602013 10.174905 6.643648
F -2.660822 11.176987 8.306801
C -4.989238 11.389868 8.100201
F -4.745999 12.515519 7.358336
F -6.046573 10.780743 7.476600
C -5.464558 11.829549 9.483237
F -5.904374 10.735272 10.164602
F -6.563235 12.622960 9.319961
C -4.442839 12.588495 10.324602
F -3.311912 11.829997 10.352901
F -4.093111 13.739606 9.700451
C -4.849656 12.855933 11.762381
F -5.198325 11.663793 12.352170
C -5.967285 13.849127 11.883480
F -7.119533 13.374010 11.362634
F -6.246710 14.153890 13.171898
F -5.685341 15.008958 11.251749
C -3.687774 13.430667 12.518802
F -2.599805 12.627531 12.444916
F -3.972524 13.574268 13.836109
F -3.310294 14.646341 12.062458
C 3.262132 -0.266261 6.355653
C 3.206984 -1.547593 5.896941
H 1.530494 2.655360 9.102926
H 0.772126 1.095311 9.046736
H 0.371688 3.224482 6.884047
H -1.548253 1.853466 6.517737
H -0.455543 3.816515 9.270529
H -1.544387 2.414578 9.167616
H 4.081811 -1.931442 5.365083
O -0.720549 -4.681904 3.728872
C 0.293757 -4.019576 3.872171
O 1.331419 -3.894382 2.991466
C 1.319320 -4.801150 1.868234
C 0.409411 -4.380625 0.674214
O -0.921843 -4.146551 1.104973
C 0.901656 -3.096715 0.012691
C 1.337525 -3.306661 -1.443337
F 0.209649 -3.545799 -2.162522
F 2.107639 -4.419272 -1.539837
C 2.106989 -2.085302 -1.951253
F 3.297673 -2.011309 -1.293630
F 1.428145 -0.966712 -1.550260
C 2.297928 -2.065473 -3.458141
F 2.979180 -3.145504 -3.908016
F 1.055203 -2.130032 -4.031382
C 2.942516 -0.769328 -3.931657
F 2.617819 -0.580049 -5.249129
F 2.352470 0.267688 -3.273295
C 4.457880 -0.673193 -3.796735
F 5.047384 -1.599433 -4.596922
F 4.853672 -0.963173 -2.532815
C 4.905310 0.738804 -4.157449
F 4.559988 1.015288 -5.441133
F 4.225220 1.621602 -3.360713
C 6.392012 0.958058 -3.952886
F 6.671989 0.918173 -2.618913
F 7.095725 -0.068617 -4.508954
C 6.890327 2.265381 -4.562347
F 8.219853 2.392559 -4.277076
F 6.825500 2.189228 -5.924356
C 6.128910 3.500121 -4.102621
F 6.067159 3.532429 -2.743461
F 4.846032 3.421257 -4.538743
C 6.740093 4.798843 -4.621790
F 7.995146 4.893794 -4.091448
F 6.913210 4.736792 -5.966896
C 5.957626 6.046070 -4.261714
F 5.722388 6.066284 -2.907307
C 6.745216 7.269721 -4.627467
F 7.986710 7.270316 -4.098045
F 6.144171 8.388955 -4.147863
F 6.883394 7.441106 -5.959785
C 4.659281 6.180869 -5.018159
F 4.824614 6.012407 -6.348308
F 4.073695 7.385197 -4.834501
F 3.733465 5.271506 -4.622182
C 0.501083 -3.055530 4.992112
C -0.417933 -2.113831 5.290134
H 2.352954 -4.819886 1.500816
H 1.116177 -5.821256 2.216311
H 0.406864 -5.229170 -0.023033
H -1.472084 -3.920107 0.331817
H 1.743547 -2.710426 0.578210
H 0.126582 -2.322752 0.028115
H -0.279800 -1.509005 6.192280
O -4.617506 -1.121192 6.013860
C -4.456024 -0.094286 5.358198
O -5.219435 1.031315 5.507337
C -6.412196 0.977932 6.331744
C -6.161036 1.014035 7.846623
O -7.362148 1.476712 8.457813
C -5.757037 -0.360499 8.378407
C -5.984746 -0.604583 9.862522
F -5.474154 0.480206 10.527676
F -7.305792 -0.630612 10.165762
C -5.294403 -1.875496 10.366605
F -3.988915 -1.823287 9.956147
F -5.226139 -1.867177 11.738266
C -5.984343 -3.159945 9.892527
F -6.779265 -3.667965 10.873641
F -6.846647 -2.882412 8.871901
C -4.990014 -4.176685 9.370322
F -5.663558 -5.195517 8.758184
F -4.252020 -3.588963 8.392208
C -4.089624 -4.747827 10.440079
F -4.813183 -5.515724 11.303142
F -3.553166 -3.756515 11.204228
C -2.965203 -5.563766 9.816020
F -2.163924 -4.749878 9.081827
F -3.457595 -6.496876 8.957712
C -2.158258 -6.255841 10.892248
F -1.858529 -5.374934 11.891054
F -2.932365 -7.199088 11.477653
C -0.860635 -6.816269 10.340706
F -0.067312 -5.743980 10.008692
F -1.030817 -7.496999 9.182409
C -0.082813 -7.659406 11.331858
F 1.208023 -7.760155 10.860151
F 0.022041 -7.021403 12.523753
C -0.598550 -9.088895 11.493479
F -0.377812 -9.744816 10.318567
F -1.944871 -9.104068 11.641824
C 0.005513 -9.864315 12.645537
F -0.403969 -9.284735 13.825978
C 1.499365 -9.908867 12.607296
F 1.960990 -10.334784 11.417639
F 2.016907 -10.715487 13.561687
F 2.018576 -8.676831 12.833619
C -0.481490 -11.285010 12.593406
F -0.098876 -11.920544 11.464317
F -1.832673 -11.353087 12.651017
F -0.018361 -12.017176 13.633162
C -3.326841 0.121233 4.370850
C -3.398468 1.220179 3.583551
H -7.015042 0.119242 6.021164
H -6.991924 1.858572 6.041670
H -5.374903 1.742765 8.063989
H -7.185404 1.655569 9.399990
H -4.683368 -0.473777 8.186129
H -6.293693 -1.113280 7.806858
H -4.308960 1.821149 3.633536
O -0.194018 4.658490 -0.023925
C -0.900249 4.401753 0.935072
O -0.696085 4.868106 2.211894
C 0.264128 5.936430 2.280857
C 0.179597 6.721180 3.614295
O -1.165196 7.118433 3.843485
C 0.766481 5.950602 4.808847
C 1.432910 6.909495 5.798471
F 2.476778 7.496978 5.155927
F 0.565783 7.918115 6.097356
C 1.888174 6.253960 7.099719
F 0.791782 6.027161 7.885341
F 2.404717 5.015147 6.850463
C 2.929412 7.111444 7.818116
F 2.583927 8.433488 7.735072
F 4.122506 7.015745 7.159313
C 3.118325 6.787794 9.298608
F 4.059508 7.632945 9.817844
F 1.962044 7.077232 9.966298
C 3.521727 5.354430 9.568981
F 2.530975 4.541422 9.111805
F 4.629179 5.036435 8.846277
C 3.766670 5.063570 11.047863
F 4.841325 5.755907 11.503181
F 2.700585 5.475134 11.790049
C 3.956482 3.566723 11.246848
F 2.799151 2.943840 10.866534
F 4.921542 3.087590 10.417166
C 4.259292 3.169807 12.679585
F 5.405035 3.749133 13.121197
F 3.271019 3.626963 13.490636
C 4.380722 1.648903 12.775115
F 5.500771 1.242149 12.127901
F 3.340293 1.051470 12.121149
C 4.360783 1.144211 14.218780
F 3.155177 1.529086 14.741446
F 5.291016 1.780336 14.974273
C 4.493480 -0.364886 14.332375
F 3.795045 -0.978404 13.325309
C 5.930542 -0.803494 14.310046
F 6.064986 -2.132659 14.525693
F 6.671112 -0.171618 15.249112
F 6.523221 -0.553304 13.118217
C 3.931003 -0.833840 15.642439
F 2.614280 -0.526196 15.751462
F 4.006974 -2.179806 15.764135
F 4.560298 -0.292206 16.703666
C -2.143141 3.569314 0.893195
C -2.771344 3.179669 -0.245522
H 0.070032 6.636821 1.466613
H 1.258517 5.502742 2.149272
H 0.749479 7.644986 3.469117
H -1.370167 7.084929 4.797047
H -0.009328 5.356973 5.296468
H 1.533121 5.249360 4.463075
H -3.685867 2.582922 -0.119982
O -3.769457 0.420529 -2.213626
C -3.356119 0.773757 -3.309685
O -2.756410 -0.033479 -4.224105
C -2.557938 -1.394987 -3.793231
C -3.342116 -2.410633 -4.647876
O -2.714967 -2.585171 -5.898497
C -4.818422 -2.057210 -4.870109
C -5.487374 -2.695635 -6.090775
F -6.775680 -2.238483 -6.116902
F -4.926121 -2.162452 -7.218424
C -5.475630 -4.219422 -6.213464
F -5.884141 -4.579955 -7.469237
F -4.218333 -4.719176 -6.088319
C -6.384457 -4.882578 -5.200944
F -6.037854 -4.490075 -3.942112
F -7.667704 -4.482937 -5.377947
C -6.260751 -6.395053 -5.321927
F -4.968542 -6.747584 -5.056616
F -6.503929 -6.804918 -6.595083
C -7.191825 -7.130537 -4.371995
F -7.084105 -6.618087 -3.124602
F -8.483688 -6.918034 -4.743437
C -6.903795 -8.621559 -4.382514
F -5.576097 -8.874976 -4.228287
F -7.202142 -9.092979 -5.632319
C -7.704455 -9.408562 -3.359500
F -9.011843 -9.040475 -3.372522
F -7.693682 -10.717739 -3.756424
C -7.141049 -9.339137 -1.936650
F -5.818489 -9.679151 -1.937297
F -7.180635 -8.074397 -1.443708
C -7.907638 -10.281608 -1.006205
F -7.896286 -11.536433 -1.517870
F -9.216904 -9.910147 -0.960148
C -7.309431 -10.278809 0.398954
F -7.309051 -8.987228 0.838347
F -6.001234 -10.638894 0.344977
C -8.045479 -11.148260 1.394621
F -9.398405 -11.008511 1.231940
C -7.668803 -12.595925 1.294200
F -7.858048 -13.102667 0.058578
F -6.375691 -12.816060 1.616347
F -8.421492 -13.360608 2.125829
C -7.660280 -10.718489 2.779348
F -8.106021 -11.556016 3.745955
F -6.320990 -10.609768 2.934735
F -8.189559 -9.501783 3.067464
C -3.316108 2.221445 -3.755824
C -3.698956 2.627248 -4.989561
H -1.490077 -1.576846 -3.924547
H -2.780216 -1.539403 -2.735434
H -3.262347 -3.394055 -4.187602
H -1.745606 -2.707954 -5.722969
H -4.914037 -0.983267 -5.036639
H -5.395614 -2.230046 -3.962493
H -3.726225 3.694455 -5.208624
O -1.895457 2.145566 -9.731974
C -2.760050 2.209877 -8.866209
O -3.525308 3.311402 -8.633412
C -3.325245 4.372046 -9.587404
C -4.412164 5.449414 -9.429250
O -5.709522 4.857637 -9.474164
C -4.271510 6.239941 -8.117966
C -5.338222 7.336434 -7.929580
F -5.338966 7.694167 -6.606489
F -6.573674 6.806938 -8.143434
C -5.108720 8.588180 -8.787350
F -4.238658 9.422410 -8.148821
F -4.473062 8.245985 -9.948835
C -6.418436 9.273172 -9.142028
F -7.139656 8.451580 -9.957273
F -7.191466 9.466830 -8.037337
C -6.186700 10.617883 -9.830626
F -5.018513 10.638602 -10.534606
F -6.015385 11.561103 -8.842179
C -7.346434 11.034215 -10.748551
F -7.500588 12.400995 -10.641914
F -8.523154 10.513120 -10.313253
C -7.115314 10.745273 -12.231983
F -8.189174 11.195509 -12.939893
F -6.059390 11.507651 -12.650952
C -6.839842 9.305194 -12.607991
F -5.743476 8.874648 -11.923390
F -7.858631 8.497198 -12.213707
C -6.621363 9.145893 -14.109037
F -7.812188 9.224036 -14.752754
F -5.855309 10.152646 -14.615315
C -5.908236 7.839485 -14.382680
F -4.629625 7.941608 -13.931010
F -6.463848 6.818458 -13.673146
C -5.942060 7.456462 -15.858024
F -7.174519 6.914380 -16.096209
F -5.876315 8.550740 -16.661074
C -4.844035 6.481611 -16.225921
F -4.485649 5.732926 -15.135117
C -5.288860 5.570149 -17.327539
F -4.271638 4.831679 -17.831162
F -5.855134 6.236395 -18.354154
F -6.210079 4.688908 -16.861648
C -3.660709 7.248160 -16.742365
F -2.577125 6.457642 -16.899918
F -3.896880 7.824651 -17.941331
F -3.301990 8.239687 -15.892831
C -3.115677 1.115210 -7.930259
C -2.651066 -0.151710 -8.001526
H -2.331623 4.799344 -9.452292
H -3.404526 3.948596 -10.588922
H -4.329556 6.117826 -10.289540
H -5.743634 4.226697 -10.219579
H -4.343814 5.543999 -7.267543
H -3.264929 6.675019 -8.050006
H -3.076904 -0.824038 -7.258525
O -0.309815 -3.605731 -6.143155
C -0.338136 -4.073933 -7.282748
O -0.505412 -5.380915 -7.622742
C -1.354816 -6.136825 -6.743991
C -0.647709 -6.926756 -5.613170
O 0.209605 -6.051664 -4.887621
C -1.701638 -7.594816 -4.691920
C -1.336870 -7.710319 -3.210234
F -0.201498 -8.457089 -3.102631
F -0.985243 -6.482283 -2.734393
C -2.460524 -8.303615 -2.318716
F -2.323381 -9.663085 -2.338313
F -3.699114 -8.068997 -2.831460
C -2.408633 -7.763480 -0.888000
F -2.674301 -8.794203 -0.017277
F -1.130391 -7.391120 -0.568527
C -3.394320 -6.623014 -0.534958
F -2.869891 -5.927130 0.512794
F -4.540494 -7.177206 -0.019656
C -3.838987 -5.657035 -1.619649
F -2.952348 -5.647472 -2.655124
F -4.984498 -6.114164 -2.202632
C -3.987068 -4.208031 -1.200831
F -2.796646 -3.754902 -0.716327
F -4.174985 -3.514664 -2.360652
C -5.119485 -3.843919 -0.283501
F -4.937929 -4.365863 0.950408
F -6.253296 -4.407379 -0.772601
C -5.295282 -2.326108 -0.266370
F -4.133299 -1.701222 0.046352
F -5.623448 -1.911175 -1.526677
C -6.392367 -1.899533 0.694369
F -6.033444 -2.224542 1.968068
F -7.523332 -2.612444 0.445090
C -6.684488 -0.392419 0.617912
F -6.818465 0.026940 -0.665929
F -5.589583 0.263847 1.108563
C -7.921587 0.016112 1.389420
F -8.034062 -0.743266 2.521103
C -7.824335 1.461720 1.769861
F -8.976563 1.931850 2.297170
F -6.863940 1.651589 2.709957
F -7.505269 2.256479 0.722600
C -9.163930 -0.107070 0.544815
F -9.224901 0.826491 -0.434511
F -9.269950 -1.303814 -0.069417
F -10.280630 0.044436 1.294223
C -0.381062 -3.162177 -8.490390
C -0.059840 -3.646242 -9.655656
H -2.108118 -5.471194 -6.318234
H -1.913101 -6.833388 -7.388823
H -0.005185 -7.699395 -6.051178
H 0.766573 -6.644186 -4.330521
H -2.624406 -7.006584 -4.748010
H -1.951676 -8.579684 -5.098862
H 0.127405 -4.135648 -10.584855
