608
Molecule ID: homopoly_5284444
C -9.506839 -1.728551 5.633189
O -8.659214 -1.878140 4.496050
C -9.143560 -1.652364 3.218742
C -8.084464 -1.307878 2.316263
C -8.363336 -0.938019 0.973709
C -7.437669 -0.115536 0.189435
C -7.110215 1.075196 -0.319838
C -8.059678 2.134888 0.383304
O -8.935590 1.866629 1.260361
O -7.995856 3.371721 -0.170464
C -9.098853 4.193357 0.274485
C -8.743956 5.649651 0.107315
C -9.773027 6.603100 0.658789
C -9.997164 6.665404 2.045056
C -10.890037 7.600253 2.562783
C -11.560184 8.482487 1.713714
C -11.352306 8.405683 0.332952
C -10.462477 7.468420 -0.205377
C -9.678187 -1.010641 0.520956
C -10.743270 -1.357833 1.358872
C -10.465359 -1.708810 2.695843
O -11.572042 -2.072743 3.429811
H -10.563286 -1.926533 5.433080
H -9.491906 -0.663385 5.982895
H -9.083732 -2.352337 6.451682
H -7.101951 -1.171484 2.710791
H -10.018789 3.927169 -0.275629
H -9.308513 4.006113 1.336932
H -8.559413 5.848223 -0.947362
H -7.794261 5.832811 0.609428
H -9.465646 5.991150 2.721427
H -11.041013 7.654774 3.644073
H -12.242701 9.230638 2.126759
H -11.872896 9.095388 -0.324858
H -10.310604 7.435170 -1.278565
H -9.944733 -0.668380 -0.481933
H -11.762951 -1.347912 0.982125
H -11.973837 -1.217102 3.708958
C -10.264149 0.577064 -6.386318
O -10.514871 -0.620354 -5.642020
C -9.518691 -1.007536 -4.784722
C -8.245034 -0.457380 -4.714475
C -7.330691 -0.946688 -3.734811
C -5.969122 -0.314627 -3.603652
C -5.088685 -0.796017 -4.552405
C -5.494046 -2.111563 -5.169786
O -6.021606 -2.268453 -6.240404
O -4.805034 -3.076036 -4.508133
C -5.064547 -4.376589 -5.040343
C -6.498447 -4.793228 -4.730996
C -6.661531 -6.239242 -5.063293
C -6.542396 -7.194159 -4.045542
C -6.558905 -8.551753 -4.362123
C -6.698259 -8.948287 -5.691933
C -6.818456 -7.997313 -6.711892
C -6.804647 -6.638712 -6.399823
C -7.674501 -1.957251 -2.842547
C -8.928989 -2.530549 -2.945778
C -9.837071 -2.060692 -3.895810
O -11.096996 -2.595549 -3.878830
H -9.398278 0.464755 -7.048564
H -10.137886 1.432837 -5.727592
H -11.149524 0.757434 -6.995571
H -7.917587 0.342413 -5.387169
H -4.344473 -5.036599 -4.549483
H -4.843254 -4.424801 -6.115420
H -7.257715 -4.230036 -5.285198
H -6.713633 -4.603856 -3.671041
H -6.421046 -6.871527 -3.015107
H -6.462736 -9.290082 -3.567802
H -6.694492 -10.007718 -5.936694
H -6.918002 -8.307724 -7.747929
H -6.889556 -5.890871 -7.191399
H -6.943793 -2.327888 -2.126182
H -9.212190 -3.350352 -2.291507
H -11.588491 -2.040421 -4.519789
C -3.981798 6.486292 -5.859154
O -4.473201 5.132324 -5.843186
C -3.671402 4.267758 -6.539643
C -2.918792 3.280615 -5.878622
C -2.349802 2.192031 -6.565553
C -1.719729 1.001536 -5.889693
C -0.343814 0.749636 -6.035889
C 0.062620 -0.721224 -6.065921
O -0.722251 -1.695622 -5.845604
O 1.282678 -0.904199 -6.591739
C 1.680118 -2.244676 -6.931017
C 1.184708 -2.559537 -8.334537
C 1.919144 -3.653283 -9.057953
C 3.054565 -3.339643 -9.824007
C 3.715863 -4.334410 -10.552633
C 3.248085 -5.649839 -10.522158
C 2.124115 -5.966933 -9.762277
C 1.468336 -4.977975 -9.022858
C -2.540969 2.134668 -7.978522
C -3.237835 3.152096 -8.650130
C -3.787113 4.234394 -7.933613
O -4.513110 5.207259 -8.550754
H -4.588155 7.110825 -6.522049
H -4.086608 6.916348 -4.824611
H -2.930042 6.550442 -6.163021
H -2.799473 3.326599 -4.800081
H 1.293437 -2.955254 -6.217899
H 2.772809 -2.281268 -6.859541
H 1.223183 -1.653059 -8.947885
H 0.116505 -2.806753 -8.283883
H 3.430990 -2.321578 -9.865028
H 4.596291 -4.080571 -11.136381
H 3.758479 -6.421174 -11.102263
H 1.753340 -6.997730 -9.750877
H 0.581830 -5.244698 -8.437077
H -2.183032 1.283789 -8.577193
H -3.331699 3.092482 -9.752852
H -4.724753 4.866447 -9.438716
C 2.966472 0.790460 -11.277775
O 4.266872 0.543590 -10.733573
C 4.410910 1.133262 -9.494288
C 3.550937 0.898367 -8.409267
C 3.868821 1.456875 -7.158343
C 3.115598 1.176234 -5.869299
C 3.814647 0.416230 -4.943119
C 5.151941 -0.250910 -5.405434
O 6.197407 -0.191474 -4.758736
O 5.028153 -0.948211 -6.564191
C 6.286684 -1.199078 -7.237549
C 6.258056 -2.604502 -7.828378
C 6.307647 -3.723631 -6.827457
C 7.412351 -3.892487 -5.986120
C 7.517762 -5.025126 -5.169162
C 6.515267 -5.998808 -5.189167
C 5.385708 -5.818734 -6.007090
C 5.284536 -4.687571 -6.817268
C 5.050010 2.238662 -7.020593
C 5.894431 2.470401 -8.090893
C 5.568383 1.908438 -9.315065
O 6.467200 2.040727 -10.331368
H 2.686636 1.840137 -11.116886
H 3.058997 0.660550 -12.359674
H 2.204277 0.083773 -10.887014
H 2.726537 0.187616 -8.467549
H 6.350658 -0.498260 -8.079203
H 7.179780 -1.010801 -6.612335
H 7.105210 -2.710963 -8.503661
H 5.352366 -2.684381 -8.429632
H 8.210412 -3.162545 -5.966660
H 8.392144 -5.163544 -4.531864
H 6.586863 -6.882719 -4.553459
H 4.583229 -6.559232 -5.996407
H 4.405506 -4.573938 -7.443802
H 5.384384 2.622096 -6.053205
H 6.823108 3.035195 -7.953209
H 5.952739 1.821786 -11.131889
C 5.539415 -4.882990 -0.634440
O 6.188027 -3.908489 0.194751
C 6.397971 -2.750101 -0.516506
C 5.490723 -1.707714 -0.465899
C 5.772830 -0.523455 -1.182276
C 4.776294 0.613524 -1.109438
C 4.792493 1.273779 0.091428
C 6.099940 1.337452 0.892496
O 6.168717 1.384082 2.107484
O 7.208361 1.538123 0.105902
C 8.462152 1.360271 0.794104
C 8.774922 2.479845 1.784798
C 9.973045 2.163245 2.639045
C 11.269409 2.290206 2.123860
C 12.374180 1.917567 2.898831
C 12.176669 1.391198 4.178415
C 10.887126 1.247032 4.692591
C 9.798047 1.669100 3.938765
C 6.971190 -0.388273 -1.915631
C 7.894553 -1.442551 -1.924029
C 7.609262 -2.590857 -1.216906
O 8.570816 -3.549296 -1.156780
H 4.818110 -4.399603 -1.285669
H 4.997514 -5.580530 0.018916
H 6.284802 -5.423765 -1.234975
H 4.544105 -1.796888 0.111044
H 9.228120 1.247113 0.040448
H 8.437456 0.392532 1.298766
H 8.889055 3.438111 1.257953
H 7.934635 2.653654 2.462909
H 11.429337 2.674800 1.121762
H 13.374099 2.019460 2.505916
H 13.031768 1.095995 4.780889
H 10.738786 0.841897 5.690954
H 8.788385 1.570465 4.363306
H 7.237495 0.501332 -2.450323
H 8.835475 -1.336658 -2.447824
H 8.329214 -4.070496 -0.362101
C 2.848810 7.275330 5.510441
O 2.540707 6.981814 4.145801
C 3.560444 6.183007 3.678703
C 3.478175 4.776432 3.906820
C 4.367580 3.918492 3.306524
C 4.099248 2.425615 3.367147
C 4.447351 1.755960 4.546784
C 4.937510 2.623962 5.770254
O 4.653650 2.369951 6.964134
O 5.702337 3.709089 5.466623
C 5.740494 4.701906 6.509436
C 7.001372 4.496300 7.381274
C 8.314921 4.687590 6.669137
C 9.388279 3.860522 7.032372
C 10.649023 4.030082 6.449711
C 10.849114 5.025280 5.489626
C 9.791733 5.875546 5.144873
C 8.534468 5.719223 5.741950
C 5.522981 4.460371 2.700599
C 5.650027 5.846427 2.495486
C 4.630393 6.692204 2.896412
O 4.443015 7.845116 2.239810
H 2.515915 8.294832 5.759950
H 3.874983 7.053109 5.842818
H 2.177708 6.604897 6.076605
H 2.664924 4.416169 4.544652
H 4.844732 4.666062 7.142630
H 5.757239 5.654861 6.007413
H 6.958239 5.207977 8.192350
H 6.958636 3.489646 7.812850
H 9.250698 3.061432 7.759851
H 11.471637 3.366060 6.713059
H 11.824824 5.131733 5.008193
H 9.950158 6.656710 4.406624
H 7.745066 6.412103 5.456005
H 6.298742 3.811095 2.331042
H 6.433370 6.238110 1.872172
H 3.475760 8.027579 2.234448
C 3.214711 -6.952666 7.472444
O 4.204686 -5.908980 7.570937
C 4.317087 -5.264533 6.355176
C 3.706094 -4.027541 6.132567
C 3.743558 -3.446926 4.838340
C 3.192276 -2.039136 4.580659
C 1.816332 -1.933549 4.652357
C 1.007573 -0.660656 4.595631
O -0.085124 -0.615331 4.004088
O 1.484508 0.313250 5.365346
C 0.820595 1.562070 5.581201
C 0.339272 1.654616 7.045184
C 0.535056 3.020063 7.680249
C 1.813555 3.441434 8.080211
C 2.003044 4.719638 8.587514
C 0.925183 5.600363 8.710875
C -0.349533 5.182156 8.328507
C -0.548728 3.885440 7.850497
C 4.351793 -4.153325 3.769679
C 4.998442 -5.367892 4.004336
C 5.018822 -5.871298 5.298894
O 5.776864 -6.985127 5.531199
H 2.680194 -7.002913 8.431301
H 2.486662 -6.744937 6.672297
H 3.693963 -7.908839 7.212085
H 3.256880 -3.492683 6.970525
H 0.033753 1.711228 4.886830
H 1.597869 2.322927 5.415042
H 0.831300 0.911056 7.696011
H -0.722991 1.362767 7.086534
H 2.657737 2.762089 8.009828
H 2.991986 5.030209 8.906521
H 1.072267 6.605305 9.105024
H -1.197351 5.851719 8.416801
H -1.555948 3.561569 7.595201
H 4.370888 -3.736433 2.765666
H 5.552795 -5.855923 3.201605
H 6.019576 -6.900619 6.472626
C -3.175699 -5.410559 10.112942
O -1.796045 -5.441753 10.557300
C -0.895829 -4.703240 9.818170
C -1.087375 -4.302585 8.501122
C -0.201325 -3.391890 7.860773
C -0.589235 -2.916646 6.489066
C -1.752137 -2.169933 6.364220
C -2.415345 -1.455875 7.554087
O -2.944624 -0.313898 7.422554
O -2.740768 -2.269418 8.570065
C -3.728064 -1.746145 9.484089
C -3.205901 -0.625079 10.382525
C -2.414878 -1.111833 11.554431
C -3.081319 -1.672847 12.654820
C -2.362518 -2.154840 13.752375
C -0.971353 -2.058964 13.777122
C -0.296026 -1.476387 12.700539
C -1.014645 -1.006541 11.590886
C 0.955715 -2.984742 8.516231
C 1.220944 -3.476840 9.806404
C 0.304530 -4.311089 10.442947
O 0.598839 -4.739307 11.699856
H -3.769770 -5.161662 10.994921
H -3.425758 -4.682166 9.339786
H -3.451206 -6.411132 9.759063
H -1.989205 -4.600222 7.960025
H -4.552096 -1.369588 8.861787
H -4.158693 -2.577674 10.062001
H -2.606155 0.086658 9.808999
H -4.062503 -0.058427 10.754870
H -4.170277 -1.760358 12.653348
H -2.895522 -2.611146 14.590892
H -0.413683 -2.458106 14.629169
H 0.793533 -1.421164 12.711775
H -0.467410 -0.586613 10.752025
H 1.635423 -2.295597 8.052671
H 2.113002 -3.174933 10.324779
H -0.170408 -5.306362 11.926436
C -7.162414 5.833669 -3.859684
O -8.496427 5.310051 -4.020396
C -8.695203 4.058848 -3.534969
C -7.669520 3.211528 -3.117747
C -7.974137 1.927917 -2.602583
C -6.911999 1.162460 -1.833333
C -5.807328 0.728148 -2.530400
C -4.839797 1.825919 -2.659086
O -4.440942 2.297552 -3.732473
O -4.228491 2.210205 -1.506201
C -3.984101 3.632358 -1.461812
C -4.305699 4.166031 -0.062655
C -3.993337 5.639377 0.105462
C -4.950986 6.609302 -0.225165
C -4.647146 7.961341 -0.066567
C -3.386943 8.358748 0.383783
C -2.424863 7.390818 0.674921
C -2.716926 6.027656 0.544543
C -9.315789 1.484514 -2.573866
C -10.333034 2.311521 -3.021670
C -10.004335 3.572496 -3.507009
O -11.043548 4.348836 -3.926301
H -6.414447 5.190671 -4.325511
H -7.121177 6.785494 -4.379590
H -6.913392 6.002985 -2.804441
H -6.637774 3.530017 -3.081652
H -4.633612 4.170770 -2.172843
H -2.962630 3.858851 -1.727214
H -5.356989 3.975121 0.175983
H -3.751978 3.582056 0.677622
H -5.937767 6.320611 -0.585994
H -5.400052 8.713033 -0.300560
H -3.148324 9.421204 0.503813
H -1.447011 7.698815 1.029615
H -1.966669 5.283404 0.804213
H -9.566568 0.515715 -2.176563
H -11.356721 1.979094 -2.983503
H -10.687821 5.255142 -3.947723
C -4.564713 -3.355610 -9.498854
O -3.924539 -2.121887 -9.857445
C -4.340637 -1.124788 -9.020343
C -3.803830 -1.028006 -7.730209
C -4.311026 -0.059293 -6.821247
C -3.959583 -0.161513 -5.339428
C -2.654391 0.129987 -5.002936
C -2.039654 -0.185780 -3.669146
O -0.931600 0.236162 -3.350321
O -2.791023 -0.938982 -2.833309
C -2.088194 -1.216513 -1.611412
C -2.997123 -1.908603 -0.606853
C -2.778404 -3.409244 -0.520223
C -3.443177 -4.294880 -1.383164
C -3.247402 -5.671205 -1.252004
C -2.403400 -6.183451 -0.263679
C -1.729078 -5.312511 0.590521
C -1.902751 -3.935199 0.456047
C -5.312195 0.836194 -7.241344
C -5.792384 0.786543 -8.557272
C -5.293378 -0.185316 -9.438032
O -5.694506 -0.192116 -10.744870
H -3.877435 -4.170451 -9.778619
H -5.506790 -3.472241 -10.056704
H -4.746281 -3.447418 -8.424116
H -3.078929 -1.769958 -7.389240
H -1.193232 -1.803144 -1.832062
H -1.798286 -0.256722 -1.177326
H -2.759855 -1.487179 0.379981
H -4.060549 -1.708945 -0.789545
H -4.114707 -3.912552 -2.144060
H -3.777370 -6.356414 -1.905786
H -2.289370 -7.260329 -0.134484
H -1.077617 -5.697605 1.376417
H -1.388495 -3.261337 1.152732
H -5.698561 1.579583 -6.538960
H -6.509804 1.540438 -8.869835
H -6.503114 0.354870 -10.789809
C -0.553632 1.859251 -11.472505
O 0.416089 2.859354 -11.120460
C 0.304605 3.250154 -9.824832
C 0.536969 2.363275 -8.770124
C 0.370583 2.819326 -7.446135
C 0.678312 1.843984 -6.323141
C 1.884353 2.023339 -5.613382
C 2.409660 3.494092 -5.411054
O 3.549018 3.864892 -5.430763
O 1.379186 4.333078 -5.040016
C 1.776896 5.569872 -4.481421
C 2.208673 6.650819 -5.472423
C 1.889506 7.992263 -4.821066
C 0.644211 8.604840 -5.069152
C 0.256933 9.726874 -4.328236
C 1.100235 10.238902 -3.343732
C 2.329085 9.634306 -3.078173
C 2.721055 8.511337 -3.810085
C -0.120504 4.123118 -7.203859
C -0.292353 5.017692 -8.250707
C -0.052383 4.571944 -9.535011
O -0.196812 5.483674 -10.544550
H -0.100904 0.860044 -11.433755
H -1.446406 1.915354 -10.853808
H -0.850431 2.093152 -12.501081
H 0.804647 1.321565 -8.946254
H 0.869303 5.872070 -3.958043
H 2.548195 5.370889 -3.749143
H 3.281140 6.618131 -5.697837
H 1.715192 6.611330 -6.450061
H -0.031187 8.191346 -5.820857
H -0.705540 10.189591 -4.521372
H 0.792249 11.107654 -2.771409
H 2.972409 10.021959 -2.297268
H 3.665831 8.021077 -3.572922
H -0.439145 4.451331 -6.222584
H -0.626117 6.033017 -8.066833
H 0.397824 5.152114 -11.248267
C -0.060137 -4.515895 -2.737148
O 0.326762 -3.540710 -3.743459
C 1.633363 -3.129217 -3.551675
C 1.904056 -1.766290 -3.277869
C 3.239634 -1.302811 -3.225137
C 3.609856 0.163306 -3.449136
C 4.111745 1.007645 -2.462237
C 4.618673 2.360912 -2.889608
O 4.018282 3.419310 -2.762716
O 5.911953 2.223265 -3.271682
C 6.615947 3.466498 -3.394331
C 8.010032 3.148733 -3.965665
C 8.997963 4.302854 -4.093439
C 8.640982 5.647908 -3.912780
C 9.574390 6.663241 -4.125102
C 10.876867 6.352999 -4.519270
C 11.242405 5.017355 -4.705387
C 10.310801 3.998302 -4.498795
C 4.254858 -2.270514 -3.350849
C 3.996899 -3.608299 -3.626126
C 2.692794 -4.022380 -3.775750
O 2.487957 -5.281436 -4.234739
H 0.621779 -4.465599 -1.881186
H -1.054444 -4.151354 -2.426934
H -0.053112 -5.511557 -3.150504
H 1.093168 -1.048983 -3.237503
H 6.096826 4.128611 -4.100483
H 6.689664 3.918940 -2.399095
H 8.466813 2.354480 -3.354044
H 7.852514 2.726893 -4.971967
H 7.631459 5.921255 -3.623659
H 9.278687 7.696581 -4.001477
H 11.598430 7.145242 -4.696415
H 12.254594 4.765315 -5.024122
H 10.607634 2.955604 -4.673656
H 5.305143 -1.994979 -3.358000
H 4.811725 -4.285080 -3.828485
H 1.604169 -5.258245 -4.670066
C -0.611636 2.886263 -2.432883
O -0.362367 3.959335 -1.542474
C 0.920392 3.987489 -1.069904
C 1.692257 2.873330 -0.710403
C 2.936608 3.082156 -0.092241
C 3.640591 2.030838 0.737845
C 3.267825 1.942383 2.097019
C 1.752434 2.158681 2.239192
O 0.925840 1.332712 1.897996
O 1.470660 3.385549 2.739010
C 0.100798 3.810785 2.740150
C -0.084982 4.637043 4.000232
C -1.480100 5.056700 4.336846
C -1.924270 6.346489 4.006106
C -3.171577 6.802863 4.457644
C -3.959695 5.982993 5.278250
C -3.509540 4.707070 5.614039
C -2.301237 4.225662 5.103074
C 3.470558 4.379994 0.000240
C 2.682986 5.474088 -0.305758
C 1.416634 5.273538 -0.801441
O 0.647269 6.371713 -1.031278
H -1.277530 2.158751 -1.956358
H -1.112770 3.322768 -3.295799
H 0.280628 2.396054 -2.827970
H 1.285825 1.860563 -0.753868
H -0.033538 4.434860 1.855027
H -0.567168 2.959698 2.674323
H 0.310553 4.085525 4.855925
H 0.546101 5.521670 3.933796
H -1.292020 7.010396 3.413517
H -3.515155 7.795203 4.177577
H -4.930716 6.338482 5.635409
H -4.127765 4.053854 6.229644
H -1.996530 3.205933 5.341526
H 4.454984 4.560002 0.414176
H 3.050682 6.484303 -0.142313
H -0.264596 6.030093 -1.072773
C 8.620489 -0.790819 7.538878
O 7.605182 -0.637789 8.533949
C 6.322111 -0.527639 8.071441
C 5.952318 -0.198385 6.782903
C 4.571929 -0.137632 6.422358
C 4.239923 0.262499 4.974255
C 4.182341 -0.880412 4.193946
C 5.686764 -1.445610 4.120522
O 6.133768 -2.443374 4.712483
O 6.539920 -0.705814 3.385933
C 7.875707 -1.212021 3.477752
C 8.138273 -2.275197 2.420126
C 9.610085 -2.618372 2.358020
C 10.397835 -2.116687 1.308823
C 11.782914 -2.326623 1.309131
C 12.384672 -3.044961 2.348476
C 11.598484 -3.552744 3.386400
C 10.220437 -3.348228 3.393478
C 3.574785 -0.359347 7.401636
C 3.958974 -0.629257 8.713785
C 5.296083 -0.723760 9.022996
O 5.627478 -1.052499 10.308027
H 9.541937 -1.008764 8.077961
H 8.778121 0.156593 6.996826
H 8.425127 -1.623801 6.849983
H 6.696422 0.094211 6.018247
H 8.120601 -1.570150 4.479634
H 8.498129 -0.364840 3.287018
H 7.806796 -1.900240 1.448015
H 7.558206 -3.185196 2.582077
H 9.942316 -1.541979 0.500237
H 12.380254 -1.926585 0.490184
H 13.463773 -3.200003 2.343091
H 12.072666 -4.107537 4.192838
H 9.625610 -3.741255 4.217695
H 2.531247 -0.277843 7.181798
H 3.204428 -0.785978 9.482270
H 6.596991 -1.165394 10.258502
C 1.440844 -8.171268 2.902440
O 2.115798 -7.368395 1.943936
C 1.880476 -6.022423 2.048472
C 1.581341 -5.375065 3.239734
C 1.267414 -4.000342 3.231055
C 0.990870 -3.215888 4.479463
C 0.007723 -3.665677 5.358044
C -0.446728 -5.101711 5.327269
O 0.040896 -5.995654 6.008311
O -1.458084 -5.319627 4.443822
C -2.293815 -6.453600 4.745592
C -3.197307 -6.091192 5.971985
C -4.498221 -6.827661 6.079869
C -4.538430 -8.227918 6.039361
C -5.776404 -8.894216 6.107864
C -6.963415 -8.169655 6.253178
C -6.927992 -6.781140 6.325858
C -5.704534 -6.114194 6.239077
C 1.322308 -3.269844 2.025820
C 1.724478 -3.903299 0.857317
C 1.984451 -5.270774 0.882763
O 2.314342 -5.857640 -0.291418
H 0.980524 -9.002760 2.362569
H 2.153103 -8.579602 3.632544
H 0.628909 -7.667039 3.438806
H 1.711966 -5.883903 4.182335
H -1.691401 -7.337602 4.978547
H -2.886974 -6.671314 3.849259
H -3.411092 -4.999652 5.931704
H -2.638108 -6.206962 6.902793
H -3.624697 -8.825056 5.916523
H -5.822244 -9.987376 5.995190
H -7.928376 -8.685789 6.266175
H -7.857721 -6.224339 6.427894
H -5.699496 -5.023088 6.274903
H 1.123235 -2.195851 2.011630
H 1.817415 -3.327052 -0.056306
H 2.760685 -6.696562 -0.027279
C -4.882622 3.499357 3.071938
O -3.940383 2.406434 3.176479
C -4.279891 1.267039 3.870414
C -3.213493 0.352457 4.127521
C -3.467199 -0.834159 4.865546
C -2.489135 -1.975274 5.067113
C -2.884554 -2.956096 4.274442
C -3.784718 -3.368494 3.195931
O -3.953979 -2.596842 2.270484
O -4.480253 -4.545396 3.335911
C -5.542471 -4.514339 2.352693
C -6.458342 -5.738205 2.393975
C -5.927935 -6.945253 1.665979
C -5.982817 -7.042404 0.265087
C -5.550765 -8.210889 -0.379995
C -5.061663 -9.288057 0.360861
C -5.008578 -9.198020 1.750619
C -5.436176 -8.031685 2.394514
C -4.778573 -1.106178 5.311278
C -5.819263 -0.222859 5.022934
C -5.566638 0.940353 4.294786
O -6.676374 1.677821 4.003015
H -4.278080 4.376369 2.713099
H -5.644804 3.250617 2.310458
H -5.363841 3.770920 4.032736
H -2.207716 0.534950 3.779845
H -5.131053 -4.364015 1.340010
H -6.176008 -3.647054 2.609058
H -6.689544 -5.987882 3.423898
H -7.401437 -5.459030 1.908235
H -6.360656 -6.214021 -0.328116
H -5.600876 -8.290544 -1.458701
H -4.744336 -10.198084 -0.139395
H -4.661325 -10.045314 2.341245
H -5.411731 -7.987051 3.480450
H -5.003167 -2.018725 5.887861
H -6.819830 -0.435598 5.407271
H -6.979130 1.288334 3.147787
