256
Molecule ID: homopoly_83092
O 1.837531 7.066832 -0.698344
C 0.663587 6.845178 -0.897945
O -0.377703 7.471399 -0.323028
C -0.086047 8.586018 0.558991
F -1.333515 8.895726 1.063366
C 0.826446 8.300605 1.740309
F 0.693547 9.247798 2.707429
F 0.504908 7.114202 2.322000
F 2.139201 8.247691 1.445173
C 0.443675 9.818307 -0.149350
F 1.677822 9.667310 -0.665722
F -0.366563 10.143282 -1.192822
F 0.479460 10.900807 0.663016
C 0.252431 5.834144 -1.831549
C -0.154720 4.973030 -2.715896
H -1.206567 5.019969 -2.983357
O 2.600086 2.877717 -5.864496
C 1.937497 1.914538 -5.514444
O 2.361975 0.644803 -5.459328
C 3.743828 0.349209 -5.797952
F 3.724277 -1.031085 -5.905386
C 4.258345 0.889659 -7.125646
F 3.319194 0.719776 -8.097136
F 4.597308 2.190018 -7.121341
F 5.359936 0.208943 -7.541254
C 4.754105 0.724111 -4.730227
F 4.909509 2.053538 -4.571738
F 4.392615 0.226944 -3.519554
F 5.982453 0.216201 -5.000513
C 0.505456 2.034459 -5.101036
C -0.339660 1.183752 -5.734280
H 0.036438 0.446669 -6.442095
O -5.395840 -0.801902 -3.068581
C -4.519824 -0.663571 -3.909354
O -4.059770 -1.607109 -4.757918
C -4.862840 -2.806241 -4.892300
F -6.157292 -2.415250 -5.094280
C -4.385237 -3.548389 -6.125285
F -5.140081 -4.625154 -6.432489
F -3.106219 -3.976175 -5.988580
F -4.398661 -2.738570 -7.219878
C -4.767787 -3.803448 -3.752611
F -5.475999 -4.933232 -3.992835
F -3.490365 -4.191306 -3.524846
F -5.232942 -3.317311 -2.582266
C -3.827986 0.644552 -4.215281
C -4.453216 1.819798 -3.986834
H -3.900353 2.739529 -4.152691
O -8.073039 4.759927 -0.216985
C -7.828317 4.249203 -1.297981
O -8.389634 4.598470 -2.473853
C -9.363210 5.683109 -2.384227
F -8.776396 6.714379 -1.709038
C -9.728397 6.176735 -3.775130
F -8.614670 6.502812 -4.478532
F -10.393730 5.252710 -4.503941
F -10.501394 7.285607 -3.744638
C -10.697855 5.281014 -1.757794
F -10.583336 4.872165 -0.475648
F -11.263732 4.246557 -2.425656
F -11.596814 6.288882 -1.763023
C -6.891973 3.093019 -1.446421
C -6.858917 2.256287 -0.383808
H -7.581413 2.431542 0.418083
O -3.029002 3.571289 -1.314852
C -3.539902 3.020562 -0.355264
O -4.062699 3.613324 0.734149
C -3.729045 5.013673 0.923446
F -3.760971 5.651066 -0.286378
C -4.720679 5.678511 1.851534
F -4.406396 6.966358 2.116521
F -5.955062 5.678919 1.296434
F -4.823368 5.031618 3.036843
C -2.368492 5.151363 1.575938
F -1.984928 6.434495 1.757069
F -1.391236 4.557317 0.836102
F -2.335332 4.540213 2.785849
C -3.557917 1.539720 -0.214797
C -2.274325 1.100813 -0.201069
H -1.504418 1.870188 -0.309570
O 1.979612 -3.082410 -0.448383
C 1.100914 -2.259228 -0.595272
O 0.448397 -2.047361 -1.763059
C 0.774206 -3.008547 -2.817937
F 0.481260 -4.256483 -2.341941
C 2.189568 -2.912575 -3.383539
F 2.472388 -1.619387 -3.696299
F 2.345145 -3.634834 -4.519315
F 3.159255 -3.317271 -2.540689
C -0.126386 -2.722079 -4.010926
F -0.024195 -3.640121 -4.997445
F -1.434996 -2.683322 -3.651474
F 0.132421 -1.509014 -4.562161
C 0.569295 -1.402931 0.512736
C 1.063481 -1.533888 1.764793
H 0.657402 -0.906701 2.562318
O 5.312246 -3.066308 0.580830
C 5.605982 -2.909554 1.752639
O 6.786590 -3.207462 2.294276
C 7.822341 -3.743564 1.439648
F 8.841180 -3.958738 2.343651
C 8.345906 -2.784046 0.384749
F 8.628058 -1.579226 0.954687
F 9.500708 -3.227739 -0.165294
F 7.491537 -2.542834 -0.625475
C 7.520058 -5.074796 0.770729
F 8.640772 -5.643871 0.263879
F 7.021725 -5.955507 1.680213
F 6.630472 -5.007398 -0.237798
C 4.686693 -2.264697 2.735471
C 4.889880 -2.136292 4.062379
H 4.137830 -1.589550 4.647139
O 8.462324 -5.319901 7.640856
C 7.985660 -4.792835 6.644671
O 8.711338 -4.378407 5.577453
C 10.152497 -4.504904 5.751542
F 10.421524 -5.773924 6.187645
C 10.747346 -3.453954 6.687921
F 12.090392 -3.589348 6.818189
F 10.235913 -3.494332 7.939334
F 10.524526 -2.197934 6.226408
C 10.866954 -4.317210 4.432404
F 10.621109 -3.107584 3.875687
F 12.209229 -4.446747 4.533700
F 10.463623 -5.251555 3.532974
C 6.516895 -4.554346 6.477812
C 5.761511 -4.969244 7.530483
H 6.293939 -5.438644 8.360263
O 2.620547 2.662278 -2.911614
C 2.116297 3.769470 -3.039024
O 2.739443 4.961807 -2.936564
C 4.198156 5.019017 -2.819798
F 4.668699 3.833978 -2.337300
C 4.622790 6.130922 -1.877040
F 4.140551 7.339837 -2.251919
F 4.174718 5.884863 -0.618349
F 5.965521 6.252267 -1.784151
C 4.829094 5.360050 -4.156011
F 4.371213 6.540679 -4.641667
F 4.543759 4.432561 -5.097460
F 6.176454 5.452461 -4.095002
C 0.664965 3.955721 -3.376366
C 0.039797 3.140249 -4.259934
H -1.025710 3.335061 -4.389366
O -3.669346 2.440882 -6.587588
C -2.538315 2.018740 -6.695828
O -1.701474 2.285758 -7.728722
C -2.168302 3.275560 -8.677914
F -3.418246 2.925917 -9.089093
C -2.137457 4.690127 -8.116550
F -2.467549 5.628930 -9.028319
F -2.973209 4.862932 -7.061746
F -0.901625 5.006585 -7.645383
C -1.237285 3.283386 -9.874185
F -1.174151 2.052045 -10.440134
F -1.641395 4.138968 -10.838477
F 0.027991 3.615563 -9.534739
C -1.799704 1.217379 -5.650806
C -2.417850 0.630374 -4.602612
H -1.814648 0.046251 -3.905004
O -6.814518 0.603354 -5.104891
C -6.955261 1.321814 -4.131701
O -8.152276 1.730789 -3.677925
C -9.239085 1.730775 -4.634758
F -10.271589 2.254103 -3.883297
C -9.707587 0.402321 -5.212422
F -9.837756 -0.538656 -4.243158
F -10.930332 0.527904 -5.788636
F -8.903555 -0.119550 -6.160492
C -8.997047 2.675211 -5.803204
F -8.042605 2.264804 -6.668805
F -10.113711 2.915829 -6.521547
F -8.565827 3.878501 -5.326427
C -5.812110 2.050414 -3.485406
C -5.943502 2.997666 -2.531882
H -5.094102 3.635818 -2.329652
O -6.636966 -1.127405 0.851910
C -6.975523 -0.192396 0.145178
O -8.175703 -0.039136 -0.460812
C -9.162394 -1.082569 -0.230964
F -9.224555 -1.324643 1.109156
C -10.504449 -0.545315 -0.685765
F -10.820158 0.582831 0.013033
F -10.508370 -0.175428 -1.989279
F -11.521060 -1.409214 -0.500429
C -8.919188 -2.356586 -1.023169
F -7.773755 -2.984238 -0.673982
F -8.831232 -2.101122 -2.352521
F -9.916289 -3.259665 -0.857780
C -6.109016 1.019765 -0.159434
C -4.781356 0.754630 -0.087219
H -4.556630 -0.294907 0.112290
O -2.876180 -1.604139 -1.531817
C -2.356160 -1.465837 -0.441820
O -2.296146 -2.360989 0.570270
C -2.906298 -3.654680 0.300170
F -2.492323 -4.044762 -0.939169
C -4.416084 -3.642662 0.438841
F -4.980611 -2.685673 -0.333123
F -4.787956 -3.361681 1.713655
F -4.972063 -4.824088 0.100178
C -2.397796 -4.648786 1.321402
F -1.038346 -4.663904 1.312934
F -2.753306 -4.325896 2.585783
F -2.815093 -5.906231 1.084816
C -1.645627 -0.216650 -0.057661
C -0.345468 -0.282109 0.296618
H 0.167138 0.664167 0.517268
O 2.507827 -4.029469 3.846938
C 2.095579 -3.682257 2.754396
O 1.581776 -4.480522 1.806857
C 1.906844 -5.890166 1.899221
F 3.247405 -5.977754 2.180693
C 1.086770 -6.670140 2.913996
F 1.270364 -6.234047 4.180631
F 1.394525 -7.987087 2.918744
F -0.244040 -6.576251 2.673632
C 1.641540 -6.549489 0.554799
F 0.334609 -6.497572 0.203609
F 2.011611 -7.850397 0.535343
F 2.332945 -5.941744 -0.442529
C 2.221139 -2.291186 2.222883
C 3.441582 -1.711465 2.199157
H 3.561972 -0.730036 1.741952
O 7.484675 -1.829207 6.630768
C 6.847620 -1.634580 5.612552
O 6.866144 -0.504619 4.873109
C 7.733510 0.568624 5.324669
F 8.957635 0.036713 5.617061
C 7.891794 1.565428 4.196482
F 8.389976 0.954714 3.088575
F 8.726090 2.580266 4.493755
F 6.703389 2.101767 3.828308
C 7.161102 1.348477 6.496773
F 5.922319 1.822787 6.205952
F 7.923547 2.413269 6.838233
F 7.019631 0.595528 7.615628
C 5.950600 -2.631302 4.945416
C 5.923102 -3.935017 5.299937
H 5.202839 -4.591153 4.805193
O 2.462021 -5.920499 8.905382
C 3.659199 -5.714963 8.836825
O 4.568061 -6.153537 9.729124
C 4.079641 -6.968397 10.817377
F 3.351491 -7.994329 10.284548
C 3.292122 -6.206178 11.876291
F 3.994252 -5.142145 12.348336
F 2.981568 -6.983210 12.945246
F 2.120224 -5.709654 11.415987
C 5.279638 -7.551175 11.542355
F 4.932087 -8.424279 12.514833
F 6.076734 -8.230505 10.675703
F 6.054113 -6.596007 12.108635
C 4.317650 -4.906801 7.760645
C 3.525044 -4.145870 7.046096
H 2.863551 -3.561913 6.446804
