544
Molecule ID: homopoly_6437331
C 10.739253 -0.405448 0.964719
C 10.662305 -1.737151 0.244643
C 9.578765 -1.713208 -0.822946
C 9.531491 -2.994952 -1.656387
O 8.332651 -3.058451 -2.447870
C 8.315768 -2.167865 -3.490590
O 9.216413 -1.429898 -3.862971
C 7.026734 -2.161364 -4.135951
C 5.880005 -2.186178 -4.802121
C 4.919800 -3.198787 -4.309445
C 4.779199 -3.399632 -2.916660
C 3.895311 -4.339980 -2.401463
C 3.149013 -5.118465 -3.266677
O 2.240389 -6.040204 -2.818763
C 3.310365 -4.962193 -4.646068
O 2.566564 -5.787444 -5.465175
C 1.744395 -5.016927 -6.336504
C 4.200400 -4.021462 -5.175338
H 9.746288 -0.030062 1.228548
H 11.238330 0.342349 0.344368
H 11.309001 -0.522743 1.892298
H 11.633282 -1.957714 -0.218970
H 10.444928 -2.539443 0.957438
H 9.708691 -0.847168 -1.469509
H 8.591652 -1.583159 -0.350319
H 10.425824 -3.096619 -2.286498
H 9.515201 -3.863137 -0.996117
H 5.370530 -2.809965 -2.214723
H 3.839052 -4.478998 -1.318890
H 1.924388 -5.714116 -1.952022
H 2.310810 -4.601919 -7.177613
H 1.221923 -4.209356 -5.814306
H 0.984574 -5.676771 -6.757922
H 4.325988 -3.947278 -6.248812
C 6.460525 0.902690 -0.170061
C 5.124233 0.434243 -0.705943
C 5.069591 0.523117 -2.231239
C 3.761787 -0.000912 -2.817594
O 3.942241 -0.032882 -4.242122
C 3.062554 -0.799140 -4.939609
O 2.131474 -1.460756 -4.517905
C 3.396561 -0.640208 -6.393551
C 2.382615 -0.056455 -7.126113
C 2.681253 0.700363 -8.421769
C 2.039744 0.350325 -9.618962
C 2.164907 1.109861 -10.787707
C 2.928430 2.256440 -10.751006
O 2.993642 2.980111 -11.897213
C 3.610279 2.630204 -9.595745
O 4.300367 3.806766 -9.729273
C 5.453497 4.043408 -8.928510
C 3.500863 1.850464 -8.439117
H 7.273886 0.285087 -0.553056
H 6.655151 1.938054 -0.456663
H 6.457971 0.851667 0.913233
H 4.337606 1.049238 -0.265583
H 4.949960 -0.601738 -0.390244
H 5.214068 1.556554 -2.561128
H 5.912889 -0.029203 -2.650223
H 3.539218 -1.003919 -2.423874
H 2.931415 0.669589 -2.577140
H 1.379407 -0.507159 -9.668853
H 1.621719 0.815867 -11.674263
H 3.452032 3.807430 -11.647243
H 5.320511 4.988021 -8.400981
H 5.709780 3.255113 -8.218187
H 6.302211 4.183076 -9.600640
H 3.998704 2.142311 -7.531310
C -0.672382 4.545423 -10.872711
C -0.866282 3.154610 -10.307746
C -2.216775 2.923048 -9.634904
C -2.473077 3.609358 -8.279494
O -2.602152 2.659475 -7.187388
C -1.397531 2.115574 -6.896317
O -0.365515 2.580212 -7.413918
C -1.297351 0.904590 -5.974654
C -2.186405 0.193312 -5.191957
C -1.591502 -1.061826 -4.560110
C -0.859268 -0.996318 -3.362268
C -0.401971 -2.163997 -2.734850
C -0.683219 -3.392858 -3.292943
O -0.192470 -4.504691 -2.663280
C -1.455503 -3.497601 -4.458542
O -1.674403 -4.766734 -4.908967
C -2.759778 -4.926039 -5.817089
C -1.922345 -2.331529 -5.074762
H -1.606539 4.932016 -11.290869
H -0.294041 5.245154 -10.115719
H 0.086495 4.509379 -11.672024
H -0.778312 2.424874 -11.119062
H -0.029278 2.940861 -9.638624
H -2.999305 3.252982 -10.324837
H -2.347525 1.841927 -9.503616
H -1.729246 4.390209 -8.056097
H -3.430993 4.119039 -8.329322
H -0.659313 -0.034763 -2.882187
H 0.207933 -2.071233 -1.843556
H -0.327751 -5.226758 -3.314232
H -3.671940 -4.471609 -5.446847
H -2.945171 -5.989360 -5.931641
H -2.498989 -4.540144 -6.810302
H -2.520303 -2.385644 -5.980645
C -8.255413 -4.060846 -8.348412
C -8.800666 -2.783795 -7.727128
C -7.768338 -2.108855 -6.828391
C -8.260099 -0.814324 -6.209147
O -7.127393 -0.227430 -5.545305
C -7.232683 1.104082 -5.300241
O -8.192500 1.797322 -5.631918
C -5.943184 1.590264 -4.605356
C -6.083932 2.365528 -3.450203
C -7.471296 2.930355 -3.258530
C -8.485281 2.196582 -2.609996
C -9.797680 2.702222 -2.553531
C -10.083615 3.917479 -3.146859
O -11.349223 4.393122 -3.009421
C -9.096412 4.633863 -3.829127
O -9.526602 5.819840 -4.365063
C -8.797529 6.314362 -5.477194
C -7.790388 4.162332 -3.864845
H -7.304419 -3.879090 -8.849088
H -8.116511 -4.829347 -7.584395
H -8.961198 -4.440422 -9.091014
H -9.114204 -2.086549 -8.517495
H -9.703700 -3.011968 -7.153310
H -6.858906 -1.907084 -7.416156
H -7.455045 -2.790488 -6.032271
H -9.040656 -1.023935 -5.462120
H -8.663348 -0.144120 -6.973725
H -8.263901 1.239327 -2.124799
H -10.536268 2.143778 -1.990749
H -11.346316 5.236465 -3.505204
H -9.478726 6.920046 -6.086534
H -8.409121 5.517716 -6.123855
H -7.987616 6.961877 -5.137883
H -7.011920 4.723399 -4.366515
C -4.497969 10.123517 -1.776461
C -3.042326 9.716486 -1.639596
C -2.844568 8.337694 -0.965795
C -3.009996 7.212379 -1.981310
O -2.813483 5.882387 -1.496479
C -3.860801 5.370556 -0.802825
O -4.858549 5.972377 -0.448396
C -3.699576 3.867864 -0.593897
C -2.844311 3.575181 0.440630
C -1.434122 4.125905 0.224952
C -1.023092 5.428419 0.496013
C 0.321351 5.783091 0.433042
C 1.292706 4.832202 0.142193
O 2.607568 5.213634 0.160557
C 0.907065 3.511246 -0.116396
O 1.900793 2.576001 -0.313688
C 1.421458 1.228900 -0.241241
C -0.451200 3.196870 -0.138463
H -4.569936 10.992381 -2.427473
H -4.930827 10.388214 -0.804060
H -5.109386 9.324119 -2.212521
H -2.508179 10.470095 -1.056967
H -2.580267 9.696732 -2.631536
H -3.519406 8.205810 -0.109043
H -1.829391 8.281237 -0.568022
H -3.985860 7.278239 -2.491085
H -2.255459 7.350752 -2.753080
H -1.767821 6.177998 0.767320
H 0.591294 6.824236 0.650883
H 3.063127 4.486123 -0.312312
H 0.869366 0.972389 -1.156193
H 0.794217 1.029673 0.645163
H 2.264082 0.540578 -0.174924
H -0.755593 2.207248 -0.460247
C 3.252310 6.466671 6.982263
C 2.046496 6.153555 6.113647
C 1.459136 4.783370 6.443007
C -0.037226 4.723258 6.155930
O -0.329467 3.522550 5.452308
C -1.650378 3.291083 5.226400
O -2.545228 3.919170 5.801888
C -1.891324 2.290322 4.058461
C -1.032442 1.215807 4.104540
C 0.479238 1.482264 4.055196
C 1.044679 2.476799 3.244293
C 2.418420 2.564562 3.074546
C 3.254641 1.589410 3.626052
O 4.609026 1.608789 3.371614
C 2.725102 0.601748 4.431610
O 3.569373 -0.347392 4.949722
C 3.044729 -1.674106 4.915013
C 1.363606 0.618064 4.747021
H 3.690160 7.423989 6.682260
H 2.958101 6.552518 8.034244
H 4.021979 5.690187 6.906457
H 2.324082 6.194538 5.051759
H 1.310579 6.951701 6.264914
H 1.608062 4.573907 7.504297
H 2.013394 4.009251 5.891206
H -0.354945 5.582041 5.545508
H -0.589198 4.760831 7.106240
H 0.393105 3.177931 2.731403
H 2.802185 3.341852 2.427103
H 4.865226 2.524552 3.172544
H 2.738511 -1.961313 3.903702
H 3.841695 -2.345821 5.225277
H 2.218117 -1.815346 5.609561
H 0.971107 -0.113215 5.429464
C -9.265091 -2.702452 6.023968
C -8.395825 -3.897450 6.350632
C -7.039809 -3.521838 6.937078
C -6.271933 -2.564972 6.036874
O -4.915612 -2.459034 6.470790
C -4.000208 -2.292647 5.477140
O -4.227993 -2.310344 4.274150
C -2.653227 -1.870194 6.026126
C -2.057193 -2.611504 7.043000
C -2.808780 -3.818920 7.508370
C -3.338032 -3.827312 8.820185
C -4.044776 -4.933520 9.274360
C -4.270586 -5.999040 8.425814
O -4.988206 -7.051704 8.922344
C -3.813244 -5.996557 7.096327
O -4.167851 -7.114391 6.392259
C -3.955805 -7.172268 4.984594
C -3.065892 -4.907564 6.644206
H -8.859606 -2.132343 5.185642
H -9.353164 -2.030588 6.880282
H -10.259806 -3.041681 5.737227
H -8.914676 -4.540938 7.065638
H -8.236576 -4.495413 5.449340
H -6.451818 -4.443236 7.090797
H -7.145811 -3.082606 7.942905
H -6.329424 -2.918792 5.000198
H -6.702689 -1.561705 6.096735
H -3.213764 -2.971599 9.477537
H -4.441937 -4.931737 10.284612
H -5.210120 -7.606772 8.146314
H -3.221295 -6.467842 4.585948
H -3.576882 -8.176241 4.762610
H -4.914149 -7.038228 4.469621
H -2.677831 -4.863237 5.625844
C 2.159137 3.658813 10.434279
C 0.714897 3.283385 10.114517
C 0.543728 1.783181 9.901756
C 0.911387 1.378788 8.460320
O 0.870886 -0.032036 8.149740
C 1.744275 -0.819887 8.856078
O 2.455607 -0.413599 9.758085
C 1.670344 -2.279779 8.421679
C 2.878626 -2.934579 8.546169
C 2.992620 -4.426304 8.434746
C 2.819657 -5.246473 9.566914
C 3.118217 -6.611716 9.504796
C 3.614928 -7.158580 8.323643
O 3.870550 -8.490842 8.238784
C 3.806706 -6.357397 7.185832
O 4.374200 -6.982067 6.097459
C 4.404201 -6.292590 4.854860
C 3.494223 -4.992886 7.252725
H 2.327686 3.559957 11.511435
H 2.345299 4.700739 10.160423
H 2.893200 3.029357 9.923723
H 0.060097 3.618563 10.921858
H 0.383604 3.819631 9.222103
H 1.110118 1.236185 10.656102
H -0.492601 1.495846 10.077741
H 0.200531 1.844011 7.779814
H 1.884777 1.785271 8.188875
H 2.484604 -4.819521 10.509877
H 2.950942 -7.231075 10.382707
H 4.156589 -8.782342 9.121762
H 5.151933 -6.789363 4.226782
H 4.707398 -5.241417 4.952682
H 3.414100 -6.366435 4.386165
H 3.637008 -4.332566 6.399276
C 10.591507 -5.562687 -6.652327
C 9.465293 -4.684325 -7.166190
C 9.927068 -3.265180 -7.486502
C 8.803219 -2.412947 -8.064065
O 7.647673 -2.495691 -7.220607
C 7.223910 -1.314208 -6.724341
O 7.783803 -0.224922 -6.828850
C 5.858664 -1.480314 -6.114986
C 4.821432 -0.926995 -6.845609
C 5.112444 -1.033041 -8.337312
C 4.756490 -2.235416 -8.974085
C 5.199717 -2.534236 -10.255422
C 6.036724 -1.646630 -10.926903
O 6.526418 -1.943381 -12.166503
C 6.386811 -0.436182 -10.331233
O 7.303712 0.348200 -11.001471
C 6.925326 1.709932 -11.139361
C 5.916271 -0.115566 -9.047290
H 11.402634 -5.639010 -7.382886
H 10.206552 -6.572475 -6.464382
H 11.000819 -5.166973 -5.715356
H 8.671932 -4.655583 -6.412563
H 9.031980 -5.137640 -8.064658
H 10.297625 -2.798081 -6.566053
H 10.766245 -3.292201 -8.193559
H 8.504839 -2.797496 -9.040609
H 9.158279 -1.384495 -8.218802
H 4.129847 -2.947830 -8.450970
H 4.915850 -3.484754 -10.692557
H 6.185953 -2.809257 -12.444392
H 7.022435 1.993932 -12.187035
H 5.892937 1.902620 -10.849840
H 7.596432 2.342543 -10.551263
H 6.267224 0.800658 -8.574668
C -0.460458 -1.828954 -11.435048
C 0.761269 -2.700382 -11.179679
C 0.611865 -3.670250 -10.006970
C -0.052629 -3.110264 -8.738398
O 0.765534 -2.120187 -8.069849
C 0.049160 -1.039929 -7.583288
O -1.117312 -0.828759 -7.871435
C 0.924591 -0.111737 -6.720837
C 0.259368 0.681950 -5.814168
C 0.848576 1.817110 -4.932833
C -0.004079 2.412564 -3.970701
C 0.250223 3.634913 -3.366847
C 1.426616 4.284650 -3.620288
O 1.641940 5.480220 -3.009667
C 2.333136 3.721232 -4.513169
O 3.510421 4.398396 -4.676291
C 3.700205 4.819468 -6.029289
C 2.054374 2.493644 -5.147906
H -0.316898 -1.312059 -12.396990
H -0.568555 -1.068445 -10.638890
H -1.370181 -2.448059 -11.476854
H 0.983215 -3.302332 -12.080407
H 1.657117 -2.077225 -11.036937
H 1.596913 -4.090256 -9.759205
H 0.015537 -4.511607 -10.363870
H -1.053759 -2.743829 -9.000779
H -0.211888 -3.927452 -8.024532
H -0.952691 1.956941 -3.715179
H -0.491587 4.072699 -2.701164
H 2.572442 5.702782 -3.198354
H 3.046313 4.322621 -6.754975
H 3.524144 5.900057 -6.083601
H 4.746147 4.627896 -6.282705
H 2.789899 2.116079 -5.845260
C -8.592147 -1.571919 -0.951185
C -7.129162 -1.697892 -0.566431
C -6.222920 -0.883676 -1.494192
C -5.692946 -1.717497 -2.656530
O -5.134840 -0.915035 -3.712809
C -4.055358 -0.132793 -3.459668
O -3.446783 -0.077377 -2.399942
C -3.617011 0.505290 -4.771190
C -4.674494 1.128996 -5.385475
C -4.785972 1.076155 -6.895817
C -4.374794 -0.064288 -7.587099
C -4.514201 -0.154747 -8.976690
C -5.095056 0.888250 -9.677955
O -5.146885 0.808486 -11.034635
C -5.591834 2.017013 -9.002946
O -6.095973 2.983248 -9.802450
C -6.941136 3.933149 -9.150586
C -5.466779 2.079003 -7.611871
H -8.714942 -1.328543 -2.013595
H -9.051597 -0.764937 -0.365276
H -9.125418 -2.502474 -0.724345
H -6.997627 -1.339217 0.459001
H -6.817025 -2.748732 -0.561183
H -5.372669 -0.462807 -0.953726
H -6.740389 -0.008428 -1.881876
H -6.530285 -2.249881 -3.126340
H -4.958297 -2.486869 -2.363167
H -3.928983 -0.908488 -7.073908
H -4.155827 -1.027006 -9.490569
H -5.408824 1.700377 -11.316487
H -7.655918 3.420137 -8.495459
H -6.315015 4.650875 -8.598544
H -7.491006 4.470156 -9.920545
H -5.867852 2.934304 -7.048314
C -4.531839 8.037959 -6.198679
C -5.119950 6.635801 -6.187450
C -4.067571 5.538538 -6.065964
C -3.342685 5.492527 -4.717180
O -4.184945 4.910957 -3.712985
C -3.896717 3.613783 -3.436835
O -3.021088 2.960836 -3.985518
C -4.969387 3.010591 -2.595123
C -4.882537 3.157801 -1.214169
C -6.095306 2.942564 -0.347910
C -6.174933 1.860217 0.532622
C -7.288903 1.710206 1.345476
C -8.324663 2.629064 1.297632
O -9.392226 2.418626 2.133203
C -8.278454 3.740641 0.446098
O -9.385826 4.552238 0.478673
C -9.361371 5.750936 -0.291929
C -7.141206 3.909825 -0.343862
H -5.173067 8.700746 -6.780016
H -3.536957 8.056569 -6.653483
H -4.457657 8.442340 -5.185684
H -5.637995 6.472078 -7.135671
H -5.854229 6.557501 -5.386155
H -3.310892 5.713321 -6.833976
H -4.535358 4.565242 -6.246346
H -2.394116 4.962268 -4.832955
H -3.074955 6.510049 -4.429750
H -5.368499 1.141792 0.584938
H -7.341117 0.867626 2.036880
H -10.017523 3.147656 1.946319
H -8.879590 6.550162 0.283898
H -8.876907 5.652054 -1.266822
H -10.394990 6.063931 -0.486896
H -7.048211 4.763758 -1.013778
C -3.544539 -4.281175 1.639103
C -3.389836 -3.426393 0.385731
C -3.769840 -1.968771 0.590723
C -2.823487 -1.246699 1.547052
O -3.178611 0.118625 1.939272
C -2.690883 1.043764 1.059056
O -2.290495 0.791339 -0.066727
C -2.861151 2.453713 1.561165
C -2.582501 2.920269 2.835976
C -3.055067 4.351491 3.047605
C -2.117604 5.390715 3.226483
C -2.514514 6.691345 3.526452
C -3.853888 6.963076 3.685197
O -4.215740 8.261289 3.902437
C -4.818969 5.955557 3.551898
O -6.119906 6.379131 3.703253
C -7.046508 5.646609 2.910924
C -4.418828 4.636124 3.256904
H -3.308032 -5.330957 1.440449
H -4.562630 -4.228326 2.038009
H -2.854541 -3.967501 2.424544
H -4.038835 -3.840080 -0.386889
H -2.353016 -3.511158 0.028532
H -3.680855 -1.457155 -0.370452
H -4.803768 -1.867400 0.943939
H -1.820058 -1.276095 1.109627
H -2.805446 -1.788229 2.477911
H -1.046036 5.171564 3.178991
H -1.763387 7.475147 3.632875
H -5.163415 8.214608 4.119490
H -7.476713 4.801815 3.466038
H -6.587479 5.308329 1.980774
H -7.861854 6.327382 2.646830
H -5.146084 3.822133 3.220346
C 1.290536 -6.607293 1.543430
C 0.980367 -5.127971 1.494418
C 0.301966 -4.625858 2.770309
C 0.084728 -3.124363 2.698637
O -0.608968 -2.515858 3.819129
C -0.653054 -1.165147 3.546544
O -0.094903 -0.681941 2.558841
C -1.449815 -0.219495 4.464452
C -2.282152 -0.516208 5.521070
C -3.271304 0.553187 5.944366
C -4.424836 0.762084 5.151800
C -5.432400 1.632751 5.554059
C -5.288105 2.322539 6.735198
O -6.297823 3.174975 7.102724
C -4.151064 2.171729 7.542530
O -4.146791 2.956841 8.671222
C -3.033863 2.810706 9.548114
C -3.135891 1.291787 7.123820
H 1.852382 -6.902910 0.656888
H 1.891596 -6.851650 2.413581
H 0.370235 -7.196041 1.583645
H 1.913303 -4.575821 1.355887
H 0.345487 -4.911876 0.623979
H 0.975016 -4.817001 3.602975
H -0.655733 -5.126683 2.958959
H 1.084173 -2.671911 2.612001
H -0.445030 -2.914048 1.748508
H -4.543435 0.230435 4.213665
H -6.328895 1.760815 4.937776
H -5.945611 3.656498 7.880012
H -2.093141 3.069293 9.046907
H -3.182921 3.519581 10.369960
H -3.007862 1.801702 9.977304
H -2.231788 1.201383 7.705268
C 1.375335 -3.059471 13.871334
C 0.538382 -2.883821 12.608568
C -0.144921 -1.517284 12.583053
C -1.119497 -1.345010 11.421492
O -0.579876 -1.852688 10.193082
C -1.199286 -1.382968 9.066981
O -2.100998 -0.557300 9.053278
C -0.842755 -2.203322 7.850704
C 0.357968 -2.882559 7.888706
C 0.216621 -4.360615 7.589512
C -0.109803 -5.214281 8.659208
C -0.168346 -6.594656 8.483069
C 0.106303 -7.159190 7.243733
O 0.259732 -8.511097 7.226195
C 0.309475 -6.326101 6.137397
O 0.490436 -6.815455 4.856269
C -0.388008 -7.889629 4.483478
C 0.391669 -4.926446 6.318490
H 1.750578 -2.102254 14.243198
H 0.776379 -3.531324 14.655049
H 2.238068 -3.686430 13.656159
H -0.208542 -3.686115 12.546739
H 1.192899 -2.983088 11.729390
H -0.682993 -1.342765 13.514232
H 0.624665 -0.740993 12.510929
H -2.030094 -1.909122 11.637271
H -1.397815 -0.288988 11.343494
H -0.268255 -4.807306 9.656583
H -0.340873 -7.241378 9.343518
H 0.927249 -8.693292 6.532964
H -1.246660 -7.975985 5.157173
H 0.155981 -8.841928 4.491296
H -0.779895 -7.704595 3.476669
H 0.597977 -4.264422 5.488523
C 9.562090 -5.358360 7.117465
C 8.385445 -5.946973 7.878283
C 7.246453 -4.950093 8.080379
C 7.538094 -3.829906 9.075543
O 6.518880 -2.796603 8.931514
C 5.305197 -3.069534 9.506196
O 5.145400 -3.923647 10.379762
C 4.221945 -2.291717 8.804710
C 4.648685 -1.247438 8.115192
C 5.343092 -0.141424 7.535009
C 4.690446 1.083769 7.356871
C 5.376721 2.176653 6.826044
C 6.716970 2.033657 6.489109
O 7.366701 3.140768 6.004103
C 7.385849 0.828563 6.670394
O 8.715143 0.829863 6.345987
C 9.489115 -0.241156 6.887053
C 6.682718 -0.276088 7.167622
H 10.278599 -6.147870 6.887167
H 9.230655 -4.916742 6.173609
H 10.079502 -4.592576 7.695890
H 8.718314 -6.340204 8.845107
H 7.988530 -6.795590 7.303345
H 6.948934 -4.519633 7.116484
H 6.359369 -5.491939 8.425888
H 7.582935 -4.201574 10.111915
H 8.489925 -3.346313 8.858072
H 3.639351 1.173400 7.595377
H 4.857811 3.111043 6.657771
H 8.247767 2.814421 5.750392
H 9.275893 -1.175172 6.367329
H 9.344972 -0.349707 7.964668
H 10.541673 -0.003460 6.727120
H 7.154465 -1.243304 7.258366
