688
Molecule ID: homopoly_75084
C -3.552352 -12.806665 -2.643512
C -2.707544 -12.854218 -3.907858
C -1.425798 -13.658877 -3.690259
C -0.616760 -13.863286 -4.974613
C -0.052388 -12.589504 -5.614127
C 0.909828 -11.777989 -4.740421
C 2.113580 -12.584268 -4.248156
C 3.246029 -11.717295 -3.687126
C 2.794195 -10.771188 -2.573821
C 3.949704 -10.056449 -1.865812
C 4.834855 -9.231817 -2.810043
C 5.696247 -8.227159 -2.046462
O 4.821830 -7.233414 -1.510002
C 5.244058 -6.590838 -0.395918
O 6.321932 -6.713604 0.164129
C 4.232092 -5.685750 0.068486
C 3.206799 -4.928095 0.327912
H -4.465216 -12.228976 -2.820399
H -3.003381 -12.334852 -1.822073
H -3.845418 -13.813418 -2.328166
H -2.466238 -11.831254 -4.211380
H -3.297120 -13.305318 -4.713713
H -0.806861 -13.179882 -2.922456
H -1.689287 -14.649889 -3.299924
H -1.249617 -14.367880 -5.715834
H 0.206707 -14.555579 -4.763423
H 0.471787 -12.876864 -6.535247
H -0.876719 -11.937860 -5.929951
H 1.261552 -10.925068 -5.333873
H 0.363942 -11.361192 -3.888549
H 1.790834 -13.290741 -3.473418
H 2.521104 -13.182124 -5.071497
H 3.686633 -11.138535 -4.507990
H 4.033022 -12.378991 -3.307117
H 2.226606 -11.335547 -1.822838
H 2.114093 -10.014336 -2.981566
H 4.568474 -10.793874 -1.342243
H 3.514566 -9.409204 -1.095845
H 5.483799 -9.902093 -3.383549
H 4.199793 -8.688470 -3.520761
H 6.389955 -7.735909 -2.737481
H 6.271877 -8.732316 -1.265969
H 2.523128 -4.761529 -0.497962
C 9.158254 -12.428773 -0.827739
C 7.855515 -12.045884 -0.140297
C 8.039222 -10.814389 0.748268
C 6.731328 -10.314223 1.363955
C 6.151684 -11.252802 2.426008
C 4.935277 -10.654902 3.143114
C 3.728085 -10.466000 2.222437
C 2.529802 -9.883701 2.973340
C 1.322173 -9.744944 2.044132
C 0.121922 -9.137499 2.773095
C -1.161884 -9.153654 1.935841
C -1.100972 -8.296301 0.675034
O -0.918215 -6.920594 1.042619
C 0.175951 -6.295231 0.547506
O 1.043947 -6.805024 -0.144807
C 0.244470 -4.894084 1.080726
C -0.777274 -4.023271 0.934142
H 9.041876 -13.373324 -1.367709
H 9.457108 -11.662685 -1.549871
H 9.966854 -12.549300 -0.101155
H 7.094337 -11.851873 -0.903792
H 7.508875 -12.895213 0.458507
H 8.464418 -10.002687 0.145451
H 8.763805 -11.033110 1.539593
H 6.918877 -9.335415 1.820055
H 6.000893 -10.156834 0.566425
H 6.921938 -11.467214 3.176713
H 5.870181 -12.211080 1.974142
H 5.210473 -9.696119 3.596340
H 4.652731 -11.324999 3.965370
H 3.451387 -11.431868 1.780638
H 3.982406 -9.792614 1.396710
H 2.795976 -8.903156 3.385587
H 2.271669 -10.534012 3.817590
H 1.599513 -9.117358 1.189830
H 1.052917 -10.730237 1.646230
H -0.065817 -9.708703 3.691164
H 0.358788 -8.112791 3.085408
H -1.403078 -10.185539 1.657882
H -1.978026 -8.788763 2.568203
H -0.338493 -8.667237 -0.019416
H -2.062152 -8.363089 0.157575
H -0.690188 -3.035695 1.375932
C 7.312175 3.292575 -9.227053
C 6.209656 2.327098 -8.829243
C 4.959460 2.507364 -9.688270
C 3.868016 1.513262 -9.286059
C 2.574058 1.753230 -10.066991
C 1.441228 0.783744 -9.701496
C 0.975325 0.933742 -8.250600
C -0.344336 0.219282 -7.941327
C -0.265713 -1.303518 -8.093037
C -1.489355 -2.036725 -7.520767
C -1.516526 -1.994199 -5.995171
C -2.657632 -2.792901 -5.376967
O -2.653250 -2.566153 -3.953262
C -1.851207 -3.383579 -3.223277
O -1.237840 -4.357303 -3.627161
C -1.856907 -2.938504 -1.796568
C -1.436463 -1.699727 -1.455827
H 6.976539 4.330554 -9.151102
H 8.177627 3.169063 -8.569823
H 7.638718 3.110095 -10.255627
H 6.582184 1.302228 -8.927026
H 5.958122 2.485530 -7.774235
H 5.210523 2.367346 -10.746586
H 4.583365 3.531658 -9.577041
H 3.679305 1.601969 -8.210426
H 4.219710 0.493681 -9.473444
H 2.231685 2.782783 -9.907999
H 2.779775 1.653801 -11.140009
H 1.767830 -0.246112 -9.886916
H 0.595879 0.977619 -10.374071
H 0.841742 1.998056 -8.022894
H 1.747982 0.556186 -7.570620
H -1.141514 0.610184 -8.585067
H -0.618827 0.482669 -6.914154
H -0.183842 -1.555028 -9.156953
H 0.641410 -1.682653 -7.607269
H -2.412829 -1.608904 -7.930234
H -1.449319 -3.084150 -7.844026
H -0.565687 -2.374900 -5.604551
H -1.600614 -0.960725 -5.644107
H -2.589400 -3.861267 -5.613076
H -3.621861 -2.434608 -5.753947
H -1.576701 -1.385268 -0.424491
C 3.447581 10.202469 7.495708
C 2.623263 10.048932 6.225987
C 2.435483 8.594821 5.779935
C 1.734689 7.726972 6.827398
C 1.451569 6.313097 6.305889
C 0.832765 5.448912 7.405981
C 0.794625 3.950498 7.093266
C -0.401211 3.477276 6.262356
C -0.218568 3.639099 4.752309
C -1.337143 2.932528 3.980602
C -1.089721 2.946661 2.470981
C -2.201802 2.215791 1.721306
O -1.878527 2.103624 0.327706
C -2.653664 1.193361 -0.320657
O -3.424472 0.396250 0.191304
C -2.453193 1.273241 -1.782392
C -3.205106 2.127744 -2.505156
H 2.927587 9.784741 8.363953
H 3.625097 11.262303 7.701800
H 4.419314 9.708879 7.400913
H 1.643355 10.518451 6.373025
H 3.119274 10.599686 5.417735
H 1.846189 8.592334 4.853815
H 3.412761 8.160343 5.535563
H 0.794265 8.201272 7.133005
H 2.368379 7.653085 7.719444
H 2.387371 5.860007 5.956471
H 0.776208 6.378275 5.448597
H -0.172530 5.814814 7.648884
H 1.433355 5.572412 8.315825
H 0.727169 3.432511 8.058938
H 1.737304 3.624048 6.639171
H -0.537168 2.407452 6.472290
H -1.321390 3.975830 6.590730
H 0.745116 3.212923 4.460202
H -0.209591 4.696223 4.476293
H -2.301256 3.405671 4.205738
H -1.406440 1.890709 4.316757
H -0.993566 3.977484 2.118625
H -0.131101 2.476705 2.242586
H -2.330614 1.221788 2.157996
H -3.148537 2.759641 1.823834
H -3.101460 2.126719 -3.588538
C -10.140054 -1.669561 -9.610251
C -9.423807 -1.140127 -10.842654
C -9.325148 0.386758 -10.883235
C -8.413913 0.957871 -9.794033
C -8.276607 2.477069 -9.920653
C -7.367009 3.039606 -8.825630
C -7.217445 4.554567 -8.947578
C -6.460299 5.205431 -7.784276
C -4.983192 4.806210 -7.670843
C -4.734296 3.683851 -6.656406
C -3.267532 3.236509 -6.615524
C -2.302545 4.291319 -6.075514
O -2.671228 4.652005 -4.732996
C -1.735665 4.432221 -3.777047
O -0.634247 3.926892 -3.929466
C -2.241617 4.920881 -2.450666
C -1.359610 5.766047 -1.881967
H -11.142412 -1.237334 -9.524488
H -10.245195 -2.756738 -9.675396
H -9.585822 -1.444717 -8.694420
H -8.421082 -1.579999 -10.901832
H -9.969224 -1.475901 -11.732342
H -10.327487 0.823680 -10.798081
H -8.934220 0.679106 -11.865164
H -7.421774 0.495422 -9.868000
H -8.813208 0.715561 -8.803945
H -9.268323 2.942371 -9.848725
H -7.868472 2.731629 -10.905352
H -6.381924 2.564702 -8.906799
H -7.778528 2.786606 -7.841640
H -8.214185 5.011064 -8.995335
H -6.718178 4.801119 -9.892223
H -6.987224 5.022946 -6.840170
H -6.497384 6.289756 -7.952464
H -4.585344 4.529112 -8.654120
H -4.428007 5.694661 -7.347095
H -5.346463 2.810892 -6.905657
H -5.053751 4.008692 -5.659194
H -3.207408 2.348890 -5.974932
H -2.948804 2.929458 -7.618244
H -2.335387 5.201980 -6.680002
H -1.280276 3.901622 -6.141116
H -0.463213 5.937444 -2.487323
C -9.845937 4.429899 5.946401
C -8.741724 5.358083 5.465972
C -8.902721 5.698475 3.984351
C -7.787556 6.618602 3.493171
C -7.950769 6.970441 2.010453
C -6.800132 7.861262 1.548544
C -6.889317 8.240371 0.069215
C -5.679240 9.093990 -0.320819
C -5.654255 9.442796 -1.812164
C -4.456300 10.321556 -2.210927
C -3.115736 9.660305 -1.904430
C -1.903563 10.473310 -2.347450
O -0.762519 9.879677 -1.698746
C -0.101511 8.921153 -2.392994
O -0.101318 8.747726 -3.598954
C 0.517791 7.987953 -1.402715
C 1.803292 7.645620 -1.600372
H -9.830856 3.483153 5.395003
H -10.830975 4.887999 5.814414
H -9.716805 4.203618 7.008722
H -8.757880 6.277923 6.063845
H -7.770752 4.877991 5.634915
H -8.880138 4.773055 3.400532
H -9.878122 6.170948 3.815096
H -6.820993 6.123744 3.645656
H -7.778227 7.538611 4.090296
H -7.969792 6.051774 1.411620
H -8.905918 7.484018 1.852451
H -5.859365 7.329829 1.719209
H -6.772593 8.772037 2.159733
H -6.910616 7.330698 -0.543445
H -7.815938 8.791200 -0.124844
H -5.673532 10.018447 0.270116
H -4.774315 8.536471 -0.055755
H -5.636443 8.519068 -2.402805
H -6.577574 9.971375 -2.076634
H -4.521294 11.282130 -1.685441
H -4.522248 10.541532 -3.282378
H -3.025809 9.487831 -0.825221
H -3.076214 8.668255 -2.371445
H -1.798751 10.493382 -3.437485
H -1.974376 11.506900 -1.995550
H 2.358989 8.113522 -2.414131
C 5.303612 -3.255290 -10.604908
C 6.114040 -2.535182 -9.538690
C 5.274355 -2.244820 -8.294790
C 6.101316 -1.543705 -7.215429
C 5.276151 -1.308357 -5.950799
C 6.108150 -0.742332 -4.799650
C 6.317391 0.773211 -4.877060
C 7.169153 1.255065 -3.696165
C 6.979390 2.744183 -3.397337
C 7.587750 3.179076 -2.053803
C 6.950221 2.457092 -0.853145
C 6.718602 3.340341 0.374310
O 5.297938 3.491758 0.590186
C 4.683090 4.395657 -0.206973
O 5.252437 5.151477 -0.987029
C 3.187444 4.364322 -0.074566
C 2.473113 3.361440 0.485392
H 4.460007 -2.641622 -10.937540
H 5.929862 -3.472031 -11.475523
H 4.909000 -4.204157 -10.225357
H 6.976850 -3.156058 -9.266243
H 6.505298 -1.598979 -9.955399
H 4.876276 -3.186336 -7.896753
H 4.412079 -1.624336 -8.563932
H 6.972147 -2.166200 -6.972338
H 6.484286 -0.592256 -7.596361
H 4.423965 -0.652866 -6.167234
H 4.861241 -2.269833 -5.628938
H 5.577940 -0.964479 -3.865669
H 7.073699 -1.256779 -4.741384
H 5.336608 1.263188 -4.860024
H 6.804150 1.052912 -5.816562
H 6.904134 0.674167 -2.813416
H 8.226886 1.049474 -3.895691
H 5.910138 2.985729 -3.381946
H 7.425757 3.336992 -4.203777
H 7.467471 4.264281 -1.962508
H 8.666442 2.985756 -2.059300
H 5.993416 2.015595 -1.154269
H 7.612864 1.628812 -0.571676
H 7.097524 2.832430 1.266119
H 7.216129 4.315274 0.321918
H 1.382886 3.430028 0.435249
C -3.781053 -4.004197 8.777157
C -2.459038 -3.821223 9.508703
C -1.327863 -4.578345 8.810432
C 0.005717 -4.510123 9.560807
C 0.602395 -3.101440 9.610571
C 1.998150 -3.110501 10.240949
C 2.575625 -1.705878 10.443088
C 2.913616 -0.988302 9.129668
C 3.440369 0.423575 9.398803
C 3.587692 1.298161 8.146302
C 4.885743 1.099558 7.353123
C 4.870742 -0.032778 6.329879
O 3.787740 0.105599 5.397781
C 4.024889 0.856759 4.289833
O 5.047549 1.494360 4.072498
C 2.837911 0.859970 3.362441
C 1.921051 -0.130507 3.492329
H -4.072540 -5.059501 8.750311
H -3.712730 -3.638033 7.747473
H -4.574328 -3.446705 9.285357
H -2.229774 -2.751305 9.556846
H -2.565751 -4.179706 10.539517
H -1.610706 -5.633808 8.713673
H -1.196575 -4.192669 7.792104
H 0.714535 -5.181803 9.060983
H -0.126029 -4.891542 10.580639
H -0.049603 -2.441019 10.192763
H 0.655690 -2.697140 8.594052
H 1.942437 -3.599279 11.221654
H 2.683813 -3.708603 9.627957
H 3.489299 -1.788786 11.044554
H 1.867102 -1.102716 11.025489
H 3.663808 -1.574520 8.591835
H 2.025758 -0.922807 8.493265
H 2.730272 0.929816 10.066183
H 4.391916 0.373750 9.943721
H 3.589429 2.339493 8.495557
H 2.707300 1.198892 7.502196
H 5.730126 0.962069 8.039168
H 5.074793 2.035507 6.811750
H 4.750827 -0.999715 6.820488
H 5.831351 -0.078392 5.801857
H 2.090138 -0.907286 4.244203
C 12.516277 3.416788 1.752081
C 13.129483 3.958897 3.034088
C 12.259123 4.994741 3.749912
C 11.283076 4.434642 4.789537
C 10.095359 3.665712 4.208546
C 10.195520 2.153584 4.434226
C 9.054489 1.428462 3.718230
C 8.942320 -0.038584 4.136576
C 7.877754 -0.743355 3.298629
C 7.503896 -2.125200 3.841208
C 6.383485 -2.715358 2.990644
C 5.891443 -4.076535 3.469643
O 4.890866 -4.559919 2.554994
C 3.623615 -4.120910 2.748007
O 3.250123 -3.411281 3.674777
C 2.711434 -4.588717 1.644253
C 1.389902 -4.511850 1.917434
H 13.228678 2.756210 1.246635
H 12.267387 4.229414 1.062034
H 11.609784 2.839145 1.942718
H 13.386221 3.135237 3.708392
H 14.074382 4.445303 2.760041
H 11.720061 5.615022 3.023401
H 12.933475 5.675599 4.285961
H 10.878405 5.294570 5.339696
H 11.822281 3.833552 5.531327
H 9.959511 3.897982 3.145889
H 9.182245 4.012394 4.710911
H 10.156092 1.946772 5.511797
H 11.156138 1.772118 4.069566
H 9.212618 1.496919 2.634444
H 8.104169 1.933005 3.936348
H 9.905655 -0.547465 4.011706
H 8.679806 -0.092020 5.199526
H 8.238237 -0.836544 2.266194
H 6.972941 -0.124829 3.259050
H 8.380475 -2.783796 3.822067
H 7.174664 -2.042747 4.882807
H 5.537524 -2.017264 2.960430
H 6.728431 -2.814685 1.957867
H 5.503835 -4.038283 4.493950
H 6.712592 -4.802883 3.457083
H 1.080042 -4.153335 2.903357
C -6.299316 1.679597 11.645141
C -6.918454 1.476830 10.272906
C -6.849236 0.013980 9.835609
C -7.525584 -0.187416 8.478076
C -7.413528 -1.638930 8.004183
C -8.143098 -1.838818 6.673995
C -8.162850 -3.294424 6.200684
C -6.780113 -3.835889 5.829774
C -6.888257 -5.242398 5.235535
C -5.536490 -5.869161 4.888998
C -4.768463 -5.098945 3.817283
C -3.559693 -5.884876 3.318295
O -2.759683 -5.068875 2.450317
C -3.097213 -5.078252 1.133277
O -4.067607 -5.636308 0.647511
C -2.090171 -4.276228 0.348861
C -2.519247 -3.825375 -0.845426
H -5.253511 1.356288 11.657712
H -6.843712 1.112925 12.408385
H -6.329836 2.737715 11.921457
H -7.962348 1.812892 10.295311
H -6.391144 2.103196 9.543787
H -7.337508 -0.620228 10.585696
H -5.800823 -0.303620 9.775860
H -7.068173 0.475485 7.733751
H -8.583651 0.095443 8.554853
H -7.839053 -2.307344 8.762015
H -6.354108 -1.898976 7.897665
H -9.181813 -1.503660 6.783955
H -7.687448 -1.205620 5.903190
H -8.817673 -3.356390 5.322715
H -8.613790 -3.927708 6.974527
H -6.309990 -3.156040 5.110640
H -6.140048 -3.869240 6.718238
H -7.395109 -5.895406 5.955812
H -7.516948 -5.217403 4.337492
H -4.922962 -5.949223 5.794916
H -5.714910 -6.893734 4.543856
H -5.424821 -4.861700 2.972019
H -4.429097 -4.138080 4.217930
H -2.919154 -6.166963 4.160688
H -3.856876 -6.813670 2.818149
H -3.510866 -4.128955 -1.195091
C -4.388162 -8.259536 -1.875334
C -3.470016 -8.942383 -2.874546
C -2.632627 -7.929397 -3.655905
C -1.873128 -8.614101 -4.793235
C -1.054680 -7.635348 -5.635200
C 0.304521 -7.290979 -5.014671
C 1.083051 -6.342120 -5.930526
C 2.563304 -6.219431 -5.552449
C 2.957359 -4.837985 -5.031066
C 2.520784 -4.587525 -3.585329
C 3.077098 -3.260813 -3.052427
C 2.302613 -2.040230 -3.526710
O 1.081180 -1.925578 -2.776618
C 0.291923 -0.922275 -3.239070
O 0.519690 -0.261751 -4.243799
C -0.881543 -0.678368 -2.331969
C -1.361409 0.577029 -2.450060
H -4.913468 -9.006838 -1.274169
H -5.136730 -7.649247 -2.390246
H -3.821257 -7.610677 -1.203189
H -2.805450 -9.635977 -2.346598
H -4.080798 -9.539602 -3.562815
H -1.931593 -7.432033 -2.974669
H -3.287661 -7.153183 -4.071116
H -1.228683 -9.405932 -4.394551
H -2.602813 -9.102208 -5.452807
H -1.629683 -6.720493 -5.822940
H -0.876298 -8.102477 -6.611373
H 0.176538 -6.834325 -4.027302
H 0.873803 -8.218868 -4.871178
H 1.034168 -6.730381 -6.956145
H 0.593057 -5.361076 -5.949568
H 3.151418 -6.396472 -6.462591
H 2.865996 -6.997306 -4.840586
H 4.051094 -4.761599 -5.083451
H 2.560231 -4.062519 -5.695205
H 1.430852 -4.611100 -3.493550
H 2.912746 -5.398374 -2.959051
H 4.127323 -3.169142 -3.348272
H 3.049329 -3.276517 -1.961606
H 2.097163 -2.101050 -4.601456
H 2.904837 -1.144998 -3.331919
H -0.873100 1.236256 -3.175806
C -6.398924 -9.102656 2.457640
C -7.557649 -8.189688 2.089918
C -7.232226 -7.351702 0.855962
C -8.431945 -6.521137 0.400862
C -8.074974 -5.647067 -0.804778
C -9.313036 -4.940910 -1.357734
C -9.017797 -4.034224 -2.557181
C -8.159099 -2.819608 -2.191829
C -8.157046 -1.782701 -3.319385
C -7.316950 -0.530236 -3.025108
C -7.652557 0.115577 -1.678069
C -7.268591 1.588803 -1.580295
O -5.877731 1.782430 -1.867037
C -5.428569 3.020424 -1.528219
O -6.089284 3.888180 -0.972815
C -4.024457 3.222317 -2.005741
C -3.544050 4.488622 -1.959791
H -5.483013 -8.530466 2.629030
H -6.202474 -9.825679 1.658592
H -6.628421 -9.659615 3.371117
H -7.782121 -7.528525 2.935249
H -8.449360 -8.799413 1.907529
H -6.917681 -8.008595 0.036560
H -6.390797 -6.688268 1.081566
H -8.776123 -5.884040 1.224994
H -9.261525 -7.191281 0.141622
H -7.321850 -4.912964 -0.499269
H -7.627095 -6.263236 -1.593475
H -9.794250 -4.353794 -0.565816
H -10.041959 -5.698070 -1.672556
H -8.528634 -4.608910 -3.352779
H -9.979262 -3.690990 -2.959435
H -8.558484 -2.371788 -1.274949
H -7.130976 -3.134115 -1.982203
H -7.786844 -2.245610 -4.242380
H -9.188828 -1.467592 -3.518455
H -7.482060 0.186936 -3.839767
H -6.251271 -0.792974 -3.046354
H -7.128999 -0.440917 -0.891920
H -8.728151 0.035200 -1.480043
H -7.501264 1.937164 -0.567869
H -7.860069 2.169205 -2.297028
H -4.159697 5.279781 -1.534229
C -5.195631 16.646987 7.441846
C -4.391994 15.661575 6.609644
C -3.847978 14.520822 7.469175
C -3.061911 13.509896 6.630250
C -2.507587 12.377690 7.503046
C -1.791399 11.292338 6.691005
C -2.633504 10.034366 6.440007
C -3.857570 10.276425 5.556566
C -4.722230 9.028922 5.351165
C -4.029567 7.830757 4.700142
C -3.404515 8.139416 3.339795
C -3.039867 6.853673 2.606972
O -2.366810 7.187782 1.383652
C -2.193813 6.133109 0.547221
O -2.693967 5.031979 0.709234
C -1.305772 6.483447 -0.606921
C -0.366580 7.435145 -0.383893
H -6.063823 16.157790 7.894198
H -4.587127 17.074718 8.244852
H -5.556043 17.467123 6.815162
H -3.562216 16.188773 6.123332
H -5.030678 15.258849 5.814750
H -3.199254 14.928167 8.253661
H -4.679810 14.010123 7.969769
H -3.713307 13.109119 5.846501
H -2.231759 14.018420 6.123169
H -3.305399 11.939461 8.113602
H -1.785894 12.816770 8.203139
H -1.421210 11.693918 5.740629
H -0.907176 10.976702 7.259247
H -1.983026 9.289267 5.967702
H -2.950087 9.611164 7.401505
H -3.545067 10.681879 4.587937
H -4.500503 11.031707 6.022054
H -5.122397 8.710566 6.322491
H -5.590717 9.307348 4.740733
H -3.262810 7.431314 5.374656
H -4.777204 7.036078 4.587639
H -2.506530 8.753768 3.464757
H -4.089506 8.728817 2.720360
H -3.947151 6.276001 2.399996
H -2.359647 6.251273 3.218691
H -0.283186 7.938307 0.577816
C 4.032126 10.264272 -6.094763
C 2.856905 11.158302 -6.463381
C 1.917064 11.427325 -5.284158
C 2.132761 12.778368 -4.589159
C 3.505868 12.933201 -3.933074
C 3.587506 14.221012 -3.104778
C 5.009047 14.570952 -2.643581
C 5.738811 13.471775 -1.866003
C 5.151634 13.226734 -0.472316
C 5.562624 11.874316 0.126778
C 4.842408 10.715894 -0.562646
C 4.990788 9.379965 0.161736
O 4.171031 8.458803 -0.573783
C 3.650015 7.409565 0.105584
O 3.904685 7.078479 1.253491
C 2.612838 6.757085 -0.763353
C 2.422860 5.421693 -0.761220
H 4.644875 10.702398 -5.303338
H 4.672153 10.108679 -6.968601
H 3.683098 9.283865 -5.753186
H 3.220902 12.096543 -6.896658
H 2.288965 10.650793 -7.252693
H 0.887409 11.425190 -5.665015
H 1.974235 10.616299 -4.548816
H 1.352489 12.894485 -3.827069
H 1.983285 13.587654 -5.315403
H 3.694174 12.065677 -3.290888
H 4.281158 12.952864 -4.706781
H 3.214560 15.059027 -3.706823
H 2.916496 14.142900 -2.240616
H 4.969074 15.483346 -2.036995
H 5.604989 14.814427 -3.530698
H 6.788393 13.768530 -1.746486
H 5.755949 12.554312 -2.460478
H 5.492767 14.030167 0.193865
H 4.057608 13.286889 -0.487450
H 6.648142 11.741168 0.062600
H 5.301136 11.878555 1.191172
H 5.206248 10.597957 -1.590460
H 3.772409 10.946840 -0.656184
H 4.651812 9.470228 1.199183
H 6.029649 9.035306 0.135648
H 1.635398 5.018963 -1.403187
C 12.824079 -4.767697 3.882388
C 11.598470 -5.645209 4.081863
C 11.159680 -6.393470 2.820150
C 10.780056 -5.458617 1.669925
C 10.099506 -6.215303 0.525610
C 9.821207 -5.337458 -0.700223
C 8.920798 -4.139037 -0.392388
C 8.610049 -3.322104 -1.649321
C 7.868162 -2.021894 -1.325360
C 6.398620 -2.233358 -0.943631
C 5.790551 -0.948887 -0.380464
C 4.374395 -1.134393 0.142638
O 3.982971 0.028422 0.893243
C 3.271695 0.971684 0.231340
O 2.964782 0.928878 -0.953028
C 2.881236 2.109480 1.126598
C 2.724729 2.011351 2.466017
H 13.135937 -4.336743 4.839593
H 12.617345 -3.936888 3.200753
H 13.661716 -5.346968 3.481192
H 10.770075 -5.028557 4.451270
H 11.816999 -6.380864 4.864842
H 10.297566 -7.020785 3.078941
H 11.958429 -7.071099 2.495087
H 10.110243 -4.681626 2.053185
H 11.677909 -4.958521 1.287058
H 9.158283 -6.649242 0.883362
H 10.735071 -7.052672 0.213230
H 9.350091 -5.958176 -1.472107
H 10.773889 -4.985684 -1.115337
H 7.993537 -4.491082 0.069329
H 9.415197 -3.483315 0.332769
H 9.554171 -3.060379 -2.142186
H 8.032925 -3.921318 -2.364020
H 7.912397 -1.368706 -2.203789
H 8.395243 -1.496629 -0.519754
H 6.305680 -3.035747 -0.206703
H 5.837909 -2.554511 -1.827159
H 6.422950 -0.551507 0.422623
H 5.772523 -0.185341 -1.160208
H 4.332733 -1.979227 0.833778
H 3.670417 -1.349080 -0.668119
H 2.490458 2.922601 3.014250
C -14.169007 1.909633 -0.222109
C -14.013097 2.174757 1.266864
C -12.619950 1.838504 1.810260
C -11.516200 2.702794 1.193625
C -10.211074 2.681981 1.991635
C -9.469807 1.345165 1.971018
C -8.150697 1.456117 2.744330
C -7.280203 0.208170 2.578033
C -5.969499 0.330359 3.365548
C -5.015924 -0.826445 3.058554
C -3.756923 -0.783003 3.934099
C -2.704042 -1.794525 3.463821
O -1.584995 -1.142824 2.828776
C -0.509946 -0.883477 3.620388
O -0.456915 -1.084506 4.828836
C 0.643569 -0.336071 2.819719
C 0.528191 -0.180884 1.527675
H -13.982645 0.856364 -0.452311
H -15.188490 2.152163 -0.539132
H -13.483887 2.523086 -0.813975
H -14.754559 1.578368 1.812142
H -14.242606 3.226931 1.474246
H -12.636174 1.990035 2.897807
H -12.403895 0.777034 1.639508
H -11.320128 2.388045 0.162151
H -11.861586 3.744394 1.148665
H -10.418501 2.972010 3.027864
H -9.554813 3.453887 1.571000
H -10.088553 0.558016 2.415291
H -9.272111 1.055252 0.933247
H -7.588991 2.329238 2.386619
H -8.364061 1.622072 3.808549
H -7.056198 0.061879 1.514481
H -7.830412 -0.677841 2.919349
H -6.189050 0.357379 4.439350
H -5.473609 1.275903 3.114621
H -5.532716 -1.781506 3.217682
H -4.742740 -0.793497 1.998273
H -3.342220 0.226937 3.969471
H -4.059259 -1.047954 4.954505
H -2.368357 -2.421380 4.301213
H -3.129215 -2.475597 2.717119
H 0.444296 -0.025811 0.476325
