336
Molecule ID: homopoly_5370693
C 2.721064 -6.205628 0.767812
O 1.493290 -6.783367 0.332807
C 1.142341 -6.461493 -0.938016
O 1.758189 -5.709921 -1.682360
C -0.079859 -7.114256 -1.323663
C -1.224680 -7.650404 -1.661032
C -1.495148 -9.079366 -1.318319
C -0.938787 -9.648415 -0.152584
C -1.233404 -10.959585 0.221892
C -2.066649 -11.741783 -0.570407
C -2.614847 -11.210034 -1.735181
C -2.323087 -9.896522 -2.105897
O -2.863036 -9.397854 -3.264015
H 2.889739 -6.498766 1.810133
H 2.672530 -5.112542 0.723656
H 3.554190 -6.577851 0.160796
H -0.299464 -9.059202 0.499208
H -0.818233 -11.364675 1.142038
H -2.301162 -12.762287 -0.276646
H -3.272551 -11.828654 -2.340310
H -3.363058 -10.099425 -3.714897
C -7.472568 -4.844161 -3.480327
O -6.288377 -4.492302 -2.756090
C -5.292046 -5.401006 -2.873560
O -5.367294 -6.434263 -3.532513
C -4.162919 -5.133715 -1.915927
C -3.817560 -3.880702 -1.474283
C -2.823685 -3.800690 -0.340880
C -3.274925 -4.006863 0.976043
C -2.386603 -3.991851 2.056662
C -1.028296 -3.779136 1.839571
C -0.556376 -3.570829 0.546043
C -1.449593 -3.585030 -0.527255
O -0.968855 -3.421821 -1.788735
H -7.785218 -5.869230 -3.250417
H -8.282599 -4.176829 -3.175011
H -7.305095 -4.707994 -4.551829
H -4.324206 -4.216423 1.169143
H -2.757373 -4.145288 3.061943
H -0.341218 -3.754832 2.679413
H 0.504183 -3.387539 0.389906
H -0.009827 -3.273731 -1.777009
C -6.971392 -1.306915 -5.740279
O -6.599703 -1.133836 -4.370148
C -5.394779 -0.518966 -4.215574
O -4.638349 -0.179580 -5.113748
C -5.118947 -0.362576 -2.740131
C -4.874928 0.909908 -2.298509
C -4.880118 2.057769 -3.273434
C -3.665642 2.691183 -3.579162
C -3.632101 3.814300 -4.408160
C -4.814920 4.321375 -4.941184
C -6.029886 3.691549 -4.665606
C -6.056155 2.565972 -3.840260
O -7.245249 1.948531 -3.581100
H -6.263663 -1.970417 -6.248457
H -7.038886 -0.342805 -6.247131
H -7.957194 -1.778427 -5.760054
H -2.724563 2.310702 -3.180041
H -2.678458 4.289672 -4.639450
H -4.789480 5.195843 -5.583635
H -6.941468 4.086465 -5.103237
H -7.964023 2.584885 -3.733192
C -2.186653 5.126517 -1.128175
O -3.290377 4.386303 -0.594387
C -2.968062 3.669879 0.513989
O -1.855822 3.630826 1.001805
C -4.121596 2.860476 1.004400
C -4.308456 2.768636 2.358471
C -5.443151 1.934354 2.882848
C -6.761412 2.412417 2.836415
C -7.804879 1.722093 3.456589
C -7.535970 0.573033 4.190981
C -6.227735 0.113025 4.302760
C -5.197182 0.785690 3.642796
O -3.919849 0.344231 3.775614
H -1.907441 5.927894 -0.434862
H -2.503698 5.586176 -2.067533
H -1.337397 4.468279 -1.339293
H -6.993774 3.351141 2.339844
H -8.821373 2.102230 3.376262
H -8.344919 0.049762 4.691472
H -6.026524 -0.769254 4.904303
H -3.855362 -0.228009 4.560698
C -0.605033 6.333953 2.384658
O -1.277983 5.260731 3.037933
C -0.496993 4.162222 3.264317
O 0.702726 4.161761 3.029933
C -1.305592 3.030084 3.941895
C -0.608226 1.888448 4.295494
C -1.160915 0.891733 5.291177
C -1.491082 1.351625 6.579541
C -2.011567 0.504382 7.565966
C -2.191790 -0.843666 7.299524
C -1.808506 -1.348225 6.066505
C -1.270154 -0.498667 5.089993
O -0.881628 -1.159814 3.959384
H -0.265940 6.026959 1.391419
H 0.236715 6.690907 2.987784
H -1.316424 7.157110 2.265816
H -1.297905 2.381119 6.857083
H -2.269237 0.912582 8.537630
H -2.596713 -1.504290 8.062325
H -1.895138 -2.413828 5.857859
H -0.007640 -0.832101 3.677623
C 2.903765 3.927055 0.589153
O 3.139797 2.711700 1.309023
C 3.458365 2.886931 2.610790
O 3.748549 3.941247 3.161119
C 3.253153 1.639221 3.379622
C 4.112296 0.577244 3.305371
C 3.805210 -0.466079 4.368849
C 2.980470 -1.559351 4.053124
C 2.772135 -2.599596 4.969049
C 3.414052 -2.579656 6.204146
C 4.251857 -1.512977 6.531091
C 4.435586 -0.464263 5.629695
O 5.269333 0.538439 6.048429
H 1.865128 4.234651 0.724653
H 3.564369 4.739211 0.895832
H 3.061691 3.721406 -0.469071
H 2.525109 -1.642394 3.069405
H 2.127834 -3.436527 4.701445
H 3.269296 -3.393549 6.910134
H 4.756572 -1.488250 7.494262
H 5.306776 1.231444 5.370821
C 7.247435 3.642232 3.795656
O 6.985717 2.684208 2.765551
C 6.260646 3.183383 1.719154
O 5.895082 4.344455 1.633665
C 6.009586 2.071366 0.697917
C 6.146890 2.429479 -0.629701
C 6.537694 3.866444 -0.948088
C 5.662770 4.720325 -1.632158
C 6.059145 6.009424 -2.006365
C 7.337913 6.465701 -1.703202
C 8.221334 5.642854 -1.012469
C 7.823382 4.357693 -0.645396
O 8.692248 3.579646 0.074455
H 7.820442 4.487206 3.400062
H 6.309739 3.987833 4.244963
H 7.845456 3.149267 4.565733
H 4.665540 4.397183 -1.889924
H 5.363442 6.647825 -2.545556
H 7.638826 7.468004 -1.996805
H 9.203590 6.020587 -0.751216
H 9.600407 3.811308 -0.194824
C 8.780714 3.161815 -5.364056
O 7.849183 2.119723 -5.075753
C 6.619858 2.574539 -4.722471
O 6.253931 3.742473 -4.687738
C 5.748141 1.420997 -4.317225
C 5.239663 0.660409 -5.328837
C 5.569748 1.015796 -6.748132
C 4.986840 2.158469 -7.325290
C 5.259754 2.520831 -8.643676
C 6.114775 1.737682 -9.416531
C 6.694534 0.587631 -8.868193
C 6.412582 0.229439 -7.548194
O 6.973796 -0.903431 -7.023934
H 8.411906 3.802979 -6.170148
H 9.717250 2.696857 -5.688266
H 8.986960 3.746466 -4.459435
H 4.307127 2.775014 -6.740458
H 4.800523 3.408771 -9.068386
H 6.335418 2.017693 -10.441589
H 7.356885 -0.014452 -9.483659
H 7.383650 -1.410881 -7.742971
C -2.537083 -6.051281 -5.759797
O -2.766261 -6.495765 -4.417328
C -1.886223 -6.075759 -3.482822
O -0.901214 -5.383798 -3.681334
C -2.240405 -6.705936 -2.158543
C -3.393733 -6.361120 -1.509881
C -3.859331 -7.152697 -0.327827
C -3.136220 -7.129165 0.875996
C -3.583801 -7.801835 2.016773
C -4.765990 -8.530655 1.972827
C -5.484673 -8.603227 0.780769
C -5.031702 -7.931976 -0.357815
O -5.790633 -8.122994 -1.480737
H -1.483137 -5.844866 -5.967470
H -2.866818 -6.853247 -6.428684
H -3.142937 -5.160480 -5.948837
H -2.200242 -6.585486 0.947039
H -3.015041 -7.755279 2.939800
H -5.125918 -9.052561 2.856903
H -6.402870 -9.186197 0.732815
H -5.306115 -7.823677 -2.281495
C -1.419362 -1.643673 -4.410758
O -2.340786 -1.662866 -3.320607
C -3.392288 -2.496312 -3.473210
O -3.738781 -3.082454 -4.495312
C -4.163945 -2.622534 -2.198851
C -5.069535 -1.626117 -1.921076
C -6.083017 -1.804755 -0.830615
C -5.661336 -1.854270 0.499705
C -6.559650 -2.018332 1.557414
C -7.919387 -2.091892 1.312466
C -8.378182 -2.031466 0.005266
C -7.469135 -1.889769 -1.051286
O -8.066712 -1.825761 -2.281886
H -1.429545 -2.590679 -4.967138
H -0.414474 -1.485373 -4.010401
H -1.671258 -0.815811 -5.076994
H -4.614041 -1.765502 0.745750
H -6.179884 -2.082672 2.571009
H -8.625743 -2.185587 2.136282
H -9.440411 -2.084687 -0.199269
H -7.408437 -1.630081 -2.967018
C -2.162129 -0.441468 1.341736
O -3.281861 0.149464 0.704602
C -3.111810 0.637649 -0.533700
O -2.120479 0.564981 -1.243935
C -4.401267 1.257201 -0.922509
C -4.935160 2.213965 -0.095531
C -6.329977 2.690313 -0.383334
C -7.371440 1.752496 -0.269400
C -8.709021 2.094724 -0.493426
C -9.039583 3.401642 -0.826694
C -8.030776 4.357084 -0.930598
C -6.693467 4.005824 -0.718370
O -5.802966 5.026508 -0.877891
H -2.532760 -1.253617 1.964310
H -1.728931 0.310118 1.991175
H -1.426547 -0.827451 0.634900
H -7.147667 0.735413 0.034407
H -9.473973 1.333712 -0.396569
H -10.076099 3.669537 -0.992331
H -8.281443 5.383951 -1.188848
H -4.926458 4.637258 -1.073183
C -5.127676 6.965275 2.786608
O -4.263962 5.830615 2.782956
C -4.622609 4.846690 3.649937
O -5.572511 4.860358 4.415509
C -3.715375 3.673574 3.415313
C -2.708060 3.476168 4.333998
C -2.864757 4.145766 5.698454
C -1.961393 5.122553 6.146843
C -2.054611 5.667808 7.433122
C -3.049271 5.243943 8.307961
C -3.954595 4.277542 7.899184
C -3.869923 3.746242 6.609343
O -4.823020 2.812056 6.309556
H -4.968062 7.558693 3.690547
H -4.880650 7.584197 1.918139
H -6.178529 6.665051 2.704676
H -1.150782 5.475580 5.518051
H -1.337119 6.423062 7.751689
H -3.118372 5.671740 9.307575
H -4.742303 3.945248 8.572914
H -5.249562 3.106324 5.481768
C 0.367262 1.588240 0.094445
O 0.296220 1.953092 1.463541
C 0.725168 1.027271 2.339305
O 1.031479 -0.131530 2.089946
C 0.747572 1.592380 3.711597
C 1.997054 1.763242 4.247866
C 2.068492 2.288276 5.644597
C 2.303469 3.648762 5.882928
C 2.362044 4.160103 7.181288
C 2.134813 3.323601 8.272181
C 1.875516 1.971168 8.058703
C 1.851916 1.465442 6.760793
O 1.549918 0.147685 6.578076
H 1.335342 1.894966 -0.292242
H 0.224898 0.516736 -0.063913
H -0.396435 2.139766 -0.448638
H 2.432832 4.344456 5.056000
H 2.583593 5.216026 7.335087
H 2.155581 3.727706 9.278063
H 1.671098 1.338008 8.913251
H 1.692899 -0.335004 7.405485
C 6.061849 -3.363901 2.883851
O 5.432137 -2.168027 2.425298
C 6.008943 -1.042149 2.926369
O 6.953073 -0.994528 3.704950
C 5.307754 0.210951 2.389592
C 6.010964 0.691259 1.288034
C 7.107149 -0.217942 0.735833
C 6.720632 -1.321327 -0.047671
C 7.642036 -2.279831 -0.464163
C 8.986257 -2.147070 -0.121882
C 9.398549 -1.046276 0.623878
C 8.473395 -0.091881 1.051771
O 8.995771 0.909107 1.819394
H 7.126166 -3.366638 2.638829
H 5.598173 -4.213429 2.374291
H 5.912724 -3.484766 3.961718
H 5.674310 -1.460304 -0.307543
H 7.308893 -3.127331 -1.055988
H 9.705470 -2.897286 -0.433154
H 10.445140 -0.942796 0.900053
H 8.300134 1.551392 2.048270
C 8.881403 -0.582405 -3.302220
O 7.627205 -0.099390 -2.823448
C 7.662088 1.130066 -2.234553
O 8.672645 1.799175 -2.068405
C 6.251176 1.547504 -1.850458
C 5.325101 1.446541 -2.860421
C 3.844138 1.539568 -2.650007
C 3.109639 2.567747 -3.264574
C 1.726837 2.465769 -3.443226
C 1.059085 1.313411 -3.042913
C 1.764235 0.284368 -2.413256
C 3.138286 0.414200 -2.197475
O 3.800556 -0.646268 -1.644224
H 9.007923 -0.287942 -4.346480
H 8.863067 -1.671613 -3.248927
H 9.725423 -0.232830 -2.697813
H 3.619663 3.426054 -3.700158
H 1.179301 3.257759 -3.949450
H -0.010685 1.206164 -3.211237
H 1.230440 -0.600502 -2.086902
H 3.415970 -1.460642 -2.023463
C 1.391725 -1.718011 -6.963637
O 2.536417 -1.674453 -6.110903
C 2.997805 -0.419601 -5.860373
O 2.460601 0.611367 -6.234209
C 4.299897 -0.457576 -5.121701
C 4.699265 -1.564059 -4.560000
C 5.176432 -2.811154 -4.037393
C 6.490572 -3.186303 -4.333954
C 7.002599 -4.407272 -3.891685
C 6.193115 -5.262025 -3.147073
C 4.882555 -4.894537 -2.835927
C 4.376160 -3.669495 -3.275969
O 3.089242 -3.328752 -2.938884
H 0.599220 -1.065226 -6.588666
H 1.015050 -2.744172 -6.979618
H 1.679139 -1.436959 -7.982035
H 7.123032 -2.523889 -4.916253
H 8.030053 -4.680964 -4.109669
H 6.580267 -6.225135 -2.809176
H 4.273020 -5.566149 -2.242521
H 2.611929 -4.160356 -2.726874
