368
Molecule ID: homopoly_5373977
C 7.675611 7.574794 -6.031940
C 7.160214 6.821701 -7.253958
O 6.184262 5.867802 -6.812082
C 4.896084 6.297530 -6.812712
O 4.465783 7.321422 -7.323413
C 4.066254 5.455021 -6.000143
C 3.501145 4.769841 -5.033048
C 4.026262 5.133015 -3.693425
C 3.723946 6.403797 -3.163815
C 4.425724 6.883766 -2.062503
C 5.410276 6.094167 -1.477960
Cl 6.392934 6.769809 -0.244588
C 5.633504 4.789452 -1.918762
C 4.943978 4.315367 -3.035296
H 6.859109 8.154271 -5.570363
H 8.492139 8.263837 -6.307179
H 8.041588 6.867991 -5.270998
H 6.751272 7.498270 -8.015081
H 7.983626 6.264649 -7.715194
H 3.007876 7.043011 -3.666927
H 4.239049 7.896526 -1.707617
H 6.377393 4.156818 -1.429691
H 5.178005 3.321257 -3.423479
C 0.990689 -0.626092 -10.675773
C 1.586997 -0.704561 -9.289131
O 1.042351 0.352957 -8.500917
C 1.768648 0.698639 -7.402644
O 2.829005 0.176638 -7.102029
C 1.202586 1.913775 -6.679320
C -0.151925 2.061882 -6.550326
C -0.737091 3.400051 -6.164627
C -0.480000 4.549606 -6.930622
C -1.110470 5.766834 -6.648544
C -2.047685 5.828054 -5.614277
Cl -2.869411 7.311574 -5.302419
C -2.353463 4.694635 -4.866163
C -1.711381 3.486486 -5.138938
H -0.096539 -0.542439 -10.650095
H 1.375251 0.258333 -11.192902
H 1.258080 -1.505099 -11.269727
H 2.684337 -0.642717 -9.377238
H 1.299328 -1.658810 -8.841444
H 0.209853 4.521887 -7.766563
H -0.893359 6.647354 -7.250855
H -3.090021 4.746395 -4.064114
H -1.948781 2.607871 -4.535516
C -6.231078 -2.218692 -4.803060
C -5.110660 -1.464642 -4.119798
O -4.013423 -1.325736 -5.020854
C -2.933712 -0.702272 -4.491401
O -2.890633 -0.208917 -3.374600
C -1.728635 -0.791200 -5.393950
C -0.951166 -1.900447 -5.136591
C 0.507329 -1.712736 -5.205667
C 1.137719 -0.867485 -4.274319
C 2.530211 -0.824452 -4.159975
C 3.309412 -1.639247 -4.973019
Cl 5.018552 -1.624925 -4.795211
C 2.703051 -2.460590 -5.930404
C 1.309594 -2.477391 -6.064967
H -5.891260 -3.188413 -5.162625
H -6.607971 -1.663331 -5.671399
H -7.064191 -2.397191 -4.106735
H -5.476004 -0.479744 -3.822432
H -4.796906 -2.005953 -3.223401
H 0.546548 -0.273313 -3.586361
H 3.003540 -0.168322 -3.422170
H 3.314490 -3.114594 -6.546128
H 0.849868 -3.164358 -6.776651
C 1.968802 -8.121897 -4.456112
C 2.397045 -7.031027 -3.500893
O 1.245901 -6.309833 -3.028100
C 0.962389 -5.159124 -3.697583
O 1.456114 -4.867876 -4.766967
C -0.190805 -4.384585 -3.027838
C -0.104126 -4.436905 -1.644392
C 1.324189 -4.283247 -1.078247
C 2.249779 -3.433707 -1.743244
C 3.627181 -3.472537 -1.480892
C 4.116868 -4.342532 -0.522958
Cl 5.821058 -4.463147 -0.248644
C 3.228022 -5.082236 0.242255
C 1.848617 -5.028826 -0.016173
H 2.843489 -8.684280 -4.815443
H 1.270805 -8.825169 -3.975543
H 1.461517 -7.708100 -5.335606
H 2.884401 -7.466997 -2.621873
H 3.122534 -6.348731 -3.980595
H 1.895653 -2.764805 -2.505621
H 4.307809 -2.862711 -2.078552
H 3.588351 -5.711975 1.052918
H 1.241823 -5.631697 0.646770
C -5.452463 -6.623699 3.130879
C -4.620883 -5.491823 3.695314
O -3.810297 -4.839340 2.710379
C -2.656623 -5.495577 2.352147
O -2.359049 -6.623065 2.703063
C -1.785007 -4.512256 1.554118
C -1.059852 -3.661265 2.369531
C -0.932825 -4.163948 3.785736
C -0.102759 -5.258469 4.107136
C -0.118984 -5.820144 5.386235
C -0.965298 -5.287831 6.354582
Cl -0.987891 -5.948271 7.942066
C -1.791905 -4.206992 6.056058
C -1.794673 -3.673346 4.767163
H -6.116177 -6.259739 2.345673
H -6.060046 -7.059894 3.940022
H -4.824804 -7.420810 2.716301
H -4.008812 -5.805330 4.551653
H -5.296360 -4.725751 4.081209
H 0.541461 -5.701461 3.341585
H 0.513906 -6.675085 5.604378
H -2.476207 -3.789089 6.782912
H -2.518006 -2.917272 4.504772
C 5.349228 -3.774886 3.940287
C 4.760592 -2.724699 3.013028
O 3.576495 -2.112837 3.546683
C 2.448319 -2.871377 3.528406
O 2.368505 -4.024077 3.127523
C 1.235262 -2.024781 3.939412
C 1.109326 -1.576474 5.240625
C 2.317376 -1.954330 6.073058
C 3.354147 -1.009136 6.249653
C 4.509454 -1.353538 6.955700
C 4.614193 -2.620565 7.525956
Cl 6.030801 -3.024669 8.431900
C 3.617361 -3.566577 7.351020
C 2.477753 -3.234664 6.618367
H 5.636978 -3.330821 4.894549
H 4.647429 -4.584045 4.168434
H 6.245171 -4.218003 3.497973
H 5.490055 -1.921666 2.835662
H 4.532412 -3.124999 2.020915
H 3.280607 -0.023301 5.800356
H 5.304808 -0.626250 7.057443
H 3.716842 -4.553381 7.799874
H 1.712904 -3.993146 6.475924
C -4.302118 -2.854073 8.910125
C -3.510356 -1.706008 9.518199
O -2.806695 -1.003638 8.492755
C -1.885454 -0.142836 8.998295
O -1.622547 0.021713 10.183268
C -1.129051 0.564282 7.866374
C -1.375161 1.915837 7.748303
C -2.399186 2.463047 8.711670
C -1.963920 3.209036 9.817894
C -2.889351 3.672624 10.762683
C -4.245658 3.398762 10.604328
Cl -5.381903 4.002770 11.747804
C -4.695399 2.653538 9.515945
C -3.766242 2.181642 8.567017
H -4.904178 -2.508140 8.068130
H -3.640267 -3.634219 8.545847
H -4.964939 -3.321308 9.648957
H -2.822314 -2.099510 10.281380
H -4.209962 -1.012933 10.012332
H -0.909686 3.413474 9.970071
H -2.539458 4.232712 11.622607
H -5.756393 2.448950 9.388151
H -4.139193 1.594388 7.726987
C -0.914847 3.319923 1.163253
C -1.644171 4.003061 2.295162
O -0.927452 3.888383 3.531154
C -0.392018 5.047648 4.004588
O -0.122682 5.997375 3.270685
C -0.309619 5.064446 5.530486
C 0.309133 6.158868 6.086710
C 0.035067 6.556247 7.499462
C 0.941340 6.265380 8.521927
C 0.729485 6.730325 9.832682
C -0.378068 7.532685 10.098906
Cl -0.624466 8.127194 11.702658
C -1.250336 7.892909 9.082366
C -1.042326 7.407681 7.789109
H -0.712524 2.277003 1.434099
H -1.530394 3.343930 0.264462
H 0.040590 3.810755 0.953265
H -2.618399 3.520516 2.435388
H -1.863925 5.040650 2.025908
H 1.833463 5.703103 8.299985
H 1.431057 6.472108 10.611299
H -2.097030 8.558788 9.283878
H -1.729527 7.716906 7.001997
C 1.429419 2.259302 -1.340119
C 0.467794 2.412545 -2.497731
O 1.236683 2.488584 -3.703442
C 1.431536 3.744694 -4.157464
O 0.909900 4.759233 -3.735553
C 2.441122 3.748953 -5.270028
C 2.303534 2.921222 -6.360576
C 3.427498 2.992194 -7.383108
C 3.185856 3.513289 -8.672287
C 4.215636 3.549229 -9.613009
C 5.473970 3.057465 -9.300964
Cl 6.746135 3.127241 -10.458049
C 5.720159 2.507748 -8.036320
C 4.696239 2.475963 -7.093833
H 2.175717 1.498660 -1.578913
H 0.900259 1.983181 -0.430483
H 1.982884 3.188380 -1.173519
H -0.175331 1.527963 -2.571897
H -0.195394 3.268291 -2.350482
H 2.208833 3.904418 -8.939089
H 4.014887 3.953537 -10.604970
H 6.699012 2.105157 -7.788053
H 4.893502 2.021179 -6.116204
C -2.824031 4.408226 -9.810188
C -3.360276 3.038435 -9.448432
O -2.714824 2.531395 -8.271147
C -1.648748 1.719557 -8.502768
O -1.166089 1.483534 -9.600159
C -1.174372 1.132345 -7.156593
C -1.804659 -0.010679 -6.701333
C -2.837548 -0.512759 -7.685736
C -2.452713 -1.369910 -8.718206
C -3.378977 -1.728411 -9.705592
C -4.689466 -1.232406 -9.654821
Cl -5.826422 -1.694707 -10.858169
C -5.082724 -0.389854 -8.622195
C -4.162939 -0.025206 -7.634410
H -3.296649 4.780025 -10.725250
H -1.739967 4.373001 -9.957407
H -3.021873 5.119966 -9.010887
H -3.263029 2.339293 -10.289238
H -4.434895 3.099341 -9.230595
H -1.429748 -1.733954 -8.788423
H -3.079574 -2.386124 -10.519451
H -6.094067 0.016902 -8.591475
H -4.469674 0.673847 -6.858196
C -4.373417 -5.732775 -7.360298
C -4.195203 -4.240397 -7.343367
O -3.530073 -3.783415 -6.148643
C -2.182618 -3.795493 -6.195248
O -1.496293 -4.186238 -7.133120
C -1.556934 -3.284316 -4.909462
C -1.364086 -4.293451 -3.984640
C -2.184171 -5.544110 -4.139964
C -3.490980 -5.568297 -3.651167
C -4.284118 -6.707396 -3.790966
C -3.788682 -7.837568 -4.446350
Cl -4.768040 -9.232478 -4.610868
C -2.504324 -7.799650 -4.986390
C -1.702005 -6.660661 -4.838977
H -3.422924 -6.246468 -7.216449
H -5.055966 -6.042509 -6.562715
H -4.796664 -6.060923 -8.318264
H -5.170373 -3.741910 -7.395780
H -3.635826 -3.939050 -8.233186
H -3.907934 -4.685471 -3.163743
H -5.301499 -6.710365 -3.402524
H -2.118176 -8.663496 -5.525944
H -0.726889 -6.641643 -5.313806
C -2.066921 -9.525043 -1.045285
C -1.051304 -8.670341 -1.774380
O -1.419916 -7.288229 -1.714271
C -0.950985 -6.584649 -0.657735
O -0.317115 -7.027132 0.280492
C -1.196546 -5.104594 -0.858939
C -2.052103 -4.537981 0.059553
C -3.502309 -4.918715 -0.294926
C -4.002314 -6.231982 -0.199990
C -5.363065 -6.513057 -0.422200
C -6.230486 -5.471416 -0.691713
Cl -7.905320 -5.784542 -0.930605
C -5.764301 -4.162120 -0.806876
C -4.408594 -3.895783 -0.595678
H -3.081722 -9.303367 -1.382820
H -1.861270 -10.585543 -1.232936
H -2.038682 -9.349921 0.031140
H -0.044378 -8.833239 -1.367871
H -1.015322 -8.947490 -2.823770
H -3.375213 -7.075432 0.078457
H -5.722440 -7.543489 -0.328573
H -6.457629 -3.353073 -1.034114
H -4.057019 -2.882628 -0.685370
C -4.398976 -0.346407 0.247997
C -2.906772 -0.507330 0.001015
O -2.325486 -1.348253 1.007140
C -1.013452 -1.641628 0.774853
O -0.397621 -1.279986 -0.219180
C -0.431022 -2.333017 1.992134
C 0.511142 -1.609664 2.682848
C 1.318868 -0.514451 1.968010
C 2.214932 -0.951311 0.970350
C 3.255615 -0.131539 0.522748
C 3.405720 1.143322 1.059089
Cl 4.701844 2.116868 0.498979
C 2.512852 1.594767 2.022332
C 1.467673 0.778415 2.464749
H -4.659734 0.706514 0.368169
H -4.748571 -0.907105 1.115069
H -4.957755 -0.705573 -0.614418
H -2.713775 -0.931910 -0.995393
H -2.418497 0.473087 0.058231
H 2.186714 -1.970244 0.610796
H 3.947017 -0.503930 -0.217777
H 2.628146 2.593540 2.445383
H 0.851893 1.160737 3.276009
C -3.804270 -0.233784 3.649114
C -3.450326 -0.178453 5.114867
O -2.182487 -0.803300 5.367521
C -1.055008 -0.072800 5.114157
O -1.030908 1.002678 4.556465
C 0.064070 -0.662944 5.904506
C -0.073402 -0.333986 7.247204
C 0.725909 -1.044394 8.316642
C 1.755025 -0.359908 8.975532
C 2.441879 -0.930557 10.050037
C 2.070346 -2.196442 10.494787
Cl 2.909838 -2.909242 11.815709
C 1.033330 -2.887592 9.876521
C 0.359540 -2.306527 8.789709
H -3.679655 -1.248451 3.257102
H -4.830784 0.090517 3.487551
H -3.137600 0.417154 3.063793
H -3.447752 0.840154 5.504563
H -4.185318 -0.747566 5.691942
H 2.030368 0.628501 8.638419
H 3.250253 -0.390962 10.522348
H 0.735112 -3.868768 10.234611
H -0.463154 -2.843562 8.338981
C 3.720081 3.390249 7.002208
C 2.849304 3.186693 8.220845
O 1.419650 3.176613 8.004335
C 0.866002 2.744314 6.843651
O 1.443184 2.260559 5.891787
C -0.626335 2.937204 6.909096
C -1.139711 4.044655 6.278129
C -2.630034 4.268446 6.241879
C -3.425078 3.671282 5.270311
C -4.792947 3.937102 5.167989
C -5.388843 4.820877 6.062604
Cl -7.067246 5.159519 5.957002
C -4.630053 5.414649 7.068435
C -3.257325 5.132008 7.160216
H 3.924902 2.432344 6.525141
H 4.680000 3.831169 7.283677
H 3.217508 4.034983 6.272028
H 3.024362 4.020476 8.902238
H 3.158737 2.295096 8.785503
H -2.981352 2.958585 4.569212
H -5.389717 3.474408 4.387075
H -5.083443 6.085043 7.785529
H -2.711019 5.546770 7.990549
C -1.632927 10.800953 5.434862
C -0.169835 10.422963 5.492529
O -0.075897 8.999009 5.396806
C 1.201450 8.538136 5.474554
O 2.196424 9.244421 5.604018
C 1.247155 7.046523 5.350358
C 2.349026 6.564473 4.850752
C 3.553290 6.089623 4.249766
C 3.548125 5.728014 2.906728
C 4.697964 5.193472 2.343395
C 5.865185 5.071352 3.090536
Cl 7.273206 4.368064 2.396860
C 5.890258 5.483401 4.421695
C 4.725969 6.004718 5.001614
H -2.104712 10.427999 4.517934
H -1.755589 11.886240 5.459195
H -2.183804 10.365727 6.270510
H 0.258631 10.762939 6.448146
H 0.366553 10.879482 4.651444
H 2.634782 5.783789 2.311637
H 4.678787 4.895941 1.294739
H 6.786455 5.378282 5.016763
H 4.739781 6.316990 6.038601
