272
Molecule ID: homopoly_54708745
O -4.243284 4.388395 -8.747739
C -3.845914 3.397725 -8.153179
O -4.025052 3.146976 -6.821968
C -3.217791 2.231015 -8.815417
C -2.366199 1.271195 -9.126917
C -1.116217 1.878496 -9.714974
C -0.138697 2.360396 -8.847656
C 0.797011 3.299827 -9.347391
C 0.795593 3.801256 -10.685396
O 1.643888 4.739181 -11.094464
C -0.177344 3.222098 -11.520432
C -1.135350 2.287639 -11.047750
H -3.684185 2.163250 -6.735341
H -0.116489 2.095581 -7.803909
H 1.569186 3.621206 -8.661298
H -0.183202 3.492177 -12.569841
H -1.901709 1.948133 -11.711350
O -3.758547 -4.324064 -7.894851
C -3.291853 -3.189415 -8.235631
O -4.044478 -2.543438 -9.166426
C -1.911085 -2.458060 -7.873064
C -1.024319 -3.115044 -6.978691
C -1.647616 -4.194205 -6.111919
C -1.622281 -5.535427 -6.487385
C -2.363593 -6.513430 -5.767906
C -3.239541 -6.198607 -4.710713
O -3.993745 -7.080756 -4.149327
C -3.131175 -4.846308 -4.295539
C -2.389590 -3.841810 -4.980602
H -4.887774 -2.980884 -8.950217
H -1.065961 -5.918358 -7.332851
H -2.352892 -7.578426 -6.067466
H -3.699831 -4.485133 -3.436606
H -2.428025 -2.807187 -4.658902
O 3.118758 -6.008379 -5.564849
C 2.328990 -5.065594 -5.629524
O 1.024482 -5.396076 -5.690439
C 2.473836 -3.620708 -5.569941
C 3.496654 -3.090005 -4.777572
C 4.783903 -3.867506 -4.489391
C 5.472747 -3.750179 -3.251174
C 6.729214 -4.373490 -3.063878
C 7.441758 -5.132278 -4.007718
O 8.579259 -5.632842 -3.856634
C 6.737789 -5.186186 -5.245789
C 5.490381 -4.557945 -5.479013
H 0.914411 -6.280791 -5.276495
H 5.031933 -3.185882 -2.453975
H 7.153229 -4.229592 -2.069271
H 7.164674 -5.755541 -6.074639
H 5.045713 -4.685926 -6.492810
O 4.929370 1.177258 -1.825560
C 4.298946 0.138358 -1.729947
O 4.971892 -0.947072 -1.267349
C 2.890509 -0.164323 -2.209370
C 1.942255 0.838841 -2.071157
C 0.530669 0.585990 -2.584254
C -0.226051 -0.525416 -2.193131
C -1.510927 -0.768843 -2.682500
C -2.215550 0.128334 -3.516071
O -3.401104 -0.105309 -3.920689
C -1.447506 1.271329 -3.864459
C -0.112801 1.493444 -3.452569
H 5.810868 -0.536650 -0.984299
H 0.171616 -1.224757 -1.464170
H -2.011100 -1.665725 -2.344481
H -1.926252 2.056644 -4.443495
H 0.356861 2.422510 -3.761733
O 2.262675 1.189898 3.015589
C 2.314289 1.116501 1.789282
O 3.173416 0.264956 1.168472
C 1.402331 1.804942 0.817462
C 0.062313 1.752692 1.116757
C -0.767250 2.880443 0.546086
C -1.506846 2.775875 -0.630304
C -2.162222 3.896352 -1.208182
C -2.151781 5.193857 -0.624481
O -2.735988 6.231479 -1.157627
C -1.448597 5.248970 0.617462
C -0.779502 4.139711 1.184341
H 3.677729 -0.096628 1.928878
H -1.588254 1.822647 -1.121994
H -2.704603 3.744095 -2.138001
H -1.401376 6.195096 1.156307
H -0.232242 4.283399 2.106225
O -3.424777 -2.363475 0.338957
C -2.981354 -1.330064 0.817162
O -3.002894 -0.230422 0.041227
C -2.535379 -0.973351 2.234743
C -2.846711 -1.836881 3.263975
C -3.508513 -3.176725 2.993733
C -4.895569 -3.298563 3.179194
C -5.553407 -4.538848 2.996597
C -4.881950 -5.735077 2.653225
O -5.509389 -6.874769 2.540953
C -3.483965 -5.547817 2.424375
C -2.805793 -4.314514 2.580709
H -3.276988 -0.542701 -0.855244
H -5.492167 -2.439461 3.427575
H -6.628613 -4.573158 3.123630
H -2.862164 -6.394472 2.110962
H -1.735752 -4.257435 2.410117
O -3.425922 -2.421863 9.251752
C -3.225864 -2.410105 8.027972
O -3.880562 -3.402700 7.359789
C -2.286872 -1.539141 7.219169
C -1.867408 -0.334742 7.735724
C -2.891299 0.591311 8.587007
C -2.454659 1.770290 9.213477
C -3.180937 2.432831 10.262146
C -4.451167 2.036964 10.704896
O -5.102360 2.612250 11.680363
C -4.971480 0.968848 9.960559
C -4.236257 0.282550 8.926073
H -4.089732 -4.004745 8.082385
H -1.461040 2.153071 9.036501
H -2.649532 3.258330 10.764473
H -5.973459 0.602309 10.164629
H -4.779359 -0.560851 8.476225
O 3.414060 1.191106 10.310172
C 2.541125 0.713455 9.589685
O 2.369192 -0.624902 9.688584
C 1.500139 1.383406 8.691520
C 1.329906 2.745690 8.714864
C 2.204033 3.505555 9.652364
C 1.763087 3.717005 10.958319
C 2.548767 4.467775 11.841611
C 3.794922 5.056729 11.489028
O 4.529258 5.722310 12.313971
C 4.163613 4.834035 10.120275
C 3.387023 4.075776 9.232707
H 3.009263 -0.831335 10.372854
H 0.796308 3.314627 11.282872
H 2.187332 4.582898 12.876161
H 5.101599 5.232500 9.744140
H 3.701614 3.951985 8.182990
O -4.559536 -0.634978 -7.339611
C -3.425627 -0.194873 -7.269874
O -3.078523 0.696984 -6.342202
C -2.458601 -0.044391 -8.397955
C -1.769076 -1.193243 -8.733505
C -1.246238 -1.272259 -10.168654
C -2.207277 -1.149611 -11.211048
C -1.855900 -1.174825 -12.591683
C -0.556252 -1.377037 -13.029687
O -0.263946 -1.419522 -14.310296
C 0.392492 -1.502402 -12.004306
C 0.073162 -1.449776 -10.603342
H -3.401024 0.339865 -5.413579
H -3.247534 -0.953847 -10.947694
H -2.658452 -1.008651 -13.305017
H 1.450768 -1.614496 -12.232981
H 0.881544 -1.502770 -9.872092
O 1.873961 -4.411323 -9.013042
C 0.820380 -4.020938 -8.492675
O -0.310779 -4.349098 -9.180033
C 0.490913 -3.151766 -7.263622
C 1.577712 -2.702714 -6.513345
C 2.529343 -1.848234 -7.358952
C 3.677756 -2.436374 -7.935638
C 4.584118 -1.694259 -8.737258
C 4.403767 -0.326085 -9.018280
O 5.276145 0.350291 -9.717244
C 3.196360 0.223211 -8.486353
C 2.277071 -0.515530 -7.692213
H 0.166155 -4.523697 -10.033261
H 3.887586 -3.497805 -7.842567
H 5.478362 -2.205939 -9.129541
H 2.950805 1.264598 -8.661660
H 1.365544 -0.037243 -7.318454
O 3.553878 0.558743 -4.946943
C 3.959360 -0.586604 -4.903224
O 5.090117 -0.892267 -5.540695
C 3.328958 -1.719204 -4.171420
C 2.753814 -1.487535 -2.946365
C 2.185262 -2.713869 -2.228959
C 2.783017 -3.257606 -1.078245
C 2.376470 -4.518031 -0.584632
C 1.393926 -5.315794 -1.205578
O 1.133379 -6.523265 -0.845238
C 0.719278 -4.679646 -2.278033
C 1.102935 -3.427795 -2.773542
H 5.176259 -0.159172 -6.212896
H 3.592499 -2.764065 -0.551621
H 2.877017 -4.929150 0.294194
H -0.109245 -5.176328 -2.772888
H 0.574895 -3.016689 -3.626666
O 3.938773 3.928121 -2.316024
C 3.024356 3.102422 -2.497144
O 2.564599 3.001045 -3.747181
C 2.266527 2.225851 -1.512877
C 2.067863 2.651867 -0.232621
C 2.534047 4.019913 0.163421
C 1.967049 5.194787 -0.360667
C 2.509196 6.474392 -0.012791
C 3.610144 6.651838 0.837252
O 4.138177 7.815307 1.107666
C 4.134278 5.446896 1.382073
C 3.609091 4.157759 1.044147
H 3.174684 3.572832 -4.262196
H 1.119062 5.137201 -1.024059
H 1.987979 7.336117 -0.448380
H 4.945550 5.484352 2.091124
H 4.059529 3.286055 1.503913
O 0.097845 -1.643525 2.606650
C 0.097464 -0.794585 1.746812
O 0.892175 -0.976181 0.669866
C -0.600622 0.556461 1.778575
C -1.850517 0.422048 2.314460
C -2.731765 1.610801 2.694193
C -2.724060 2.044716 4.034023
C -3.728322 2.925598 4.513787
C -4.745054 3.439599 3.702682
O -5.701982 4.218455 4.145720
C -4.652534 3.080034 2.340525
C -3.692608 2.160796 1.854579
H 1.135910 -1.932716 0.786283
H -2.033291 1.596363 4.722911
H -3.704036 3.170972 5.572629
H -5.331856 3.521416 1.608860
H -3.734473 1.888810 0.805168
O -4.701979 -0.604498 6.168729
C -4.082198 -0.676211 5.094074
O -4.675022 -0.166473 4.007987
C -2.816215 -1.428397 4.724792
C -2.078845 -1.980790 5.751518
C -1.307193 -3.279212 5.525931
C 0.072371 -3.439189 5.508854
C 0.688553 -4.716180 5.719853
C -0.035901 -5.911812 5.919348
O 0.493691 -7.048791 6.201989
C -1.431555 -5.758037 5.749266
C -2.027440 -4.496075 5.589898
H -5.138332 0.633475 4.331030
H 0.681728 -2.575334 5.270148
H 1.783202 -4.768273 5.689013
H -2.100625 -6.618938 5.695642
H -3.116793 -4.450864 5.482980
O -0.041107 0.293657 10.725725
C -0.408701 -0.483465 9.861235
O -1.061338 -1.613324 10.220494
C -0.377996 -0.340507 8.323888
C 0.669574 0.411570 7.791688
C 1.658976 -0.267501 6.828388
C 2.470073 0.550412 6.015674
C 3.722777 0.119925 5.495623
C 4.274317 -1.142893 5.741748
O 5.462639 -1.464456 5.405762
C 3.381585 -2.002632 6.439193
C 2.128558 -1.586535 6.997447
H -1.249861 -1.380908 11.142264
H 2.164252 1.569588 5.809650
H 4.251359 0.854259 4.875928
H 3.673995 -3.061131 6.541582
H 1.593204 -2.321084 7.592679
O -0.127861 2.084117 5.951291
C -0.196457 3.143505 6.535699
O -0.775365 4.215397 5.906362
C 0.325708 3.544128 7.902325
C 0.054797 4.786123 8.259600
C -0.483725 6.137184 8.286624
C 0.091811 7.142933 7.499658
C -0.614710 8.374990 7.324102
C -1.846294 8.643743 7.923156
O -2.448065 9.805783 7.795439
C -2.419022 7.573902 8.612869
C -1.761442 6.321702 8.819313
H -1.086225 3.906063 5.025912
H 1.013856 6.924158 6.951582
H -0.131728 9.116822 6.691486
H -3.421360 7.662744 9.029511
H -2.288912 5.479360 9.279513
