304
Molecule ID: homopoly_67923
O -3.921476 0.877993 8.295084
C -5.102397 1.011747 8.564282
O -5.691022 0.801341 9.764331
C -4.806770 0.286912 10.781796
C -5.580668 0.141846 12.087192
F -6.628935 -0.704029 11.888978
F -6.118060 1.348252 12.415322
C -4.688912 -0.369608 13.196145
F -3.618174 0.463224 13.355102
F -4.161766 -1.577953 12.844260
C -5.477092 -0.477375 14.486415
F -5.962773 0.716786 14.895266
F -4.700518 -0.943566 15.497780
F -6.527678 -1.322119 14.380356
C -6.071217 1.381079 7.559022
C -7.000766 1.639821 6.683579
H -4.439950 -0.693115 10.453566
H -3.972168 0.981661 10.907174
H -7.911670 2.150474 6.994727
O -4.432000 -1.170254 2.249495
C -5.236822 -0.796145 3.088428
O -5.807617 -1.605101 4.021974
C -5.604073 -3.011080 3.770065
C -6.223850 -3.821806 4.898114
F -7.511086 -3.419097 5.074449
F -5.568560 -3.526733 6.054008
C -6.168098 -5.304874 4.607367
F -6.843922 -5.574672 3.451354
F -4.876538 -5.686726 4.375720
C -6.760587 -6.085107 5.762975
F -6.073193 -5.898944 6.914849
F -6.744242 -7.420887 5.513753
F -8.053082 -5.755203 6.009474
C -5.794032 0.593599 3.200954
C -5.977931 1.357997 2.100241
H -6.101019 -3.249471 2.820364
H -4.529878 -3.221617 3.702973
H -6.416456 2.352442 2.203946
O -4.278901 -1.426065 -0.897960
C -3.804736 -0.456441 -1.470803
O -3.520805 -0.373554 -2.794142
C -3.971647 -1.489943 -3.586131
C -3.125877 -1.588628 -4.848887
F -1.862912 -1.952657 -4.497962
F -3.024862 -0.356801 -5.422007
C -3.718589 -2.572420 -5.832091
F -4.972767 -2.163912 -6.190633
F -3.891167 -3.790450 -5.241323
C -2.835997 -2.697689 -7.056263
F -2.647930 -1.520080 -7.694970
F -1.612747 -3.204917 -6.769032
F -3.393638 -3.540633 -7.965292
C -3.529145 0.856287 -0.796851
C -2.447483 1.613956 -1.083627
H -5.019175 -1.296418 -3.834497
H -3.894128 -2.430077 -3.022884
H -2.332969 2.559330 -0.552889
O -0.969759 -1.907001 -0.966855
C -0.708889 -1.272322 0.046796
O -0.970342 -1.701699 1.307544
C -1.812439 -2.876583 1.345407
C -1.026285 -4.188096 1.251491
F -0.124338 -4.146887 0.240556
F -0.278806 -4.317129 2.386873
C -1.967994 -5.368257 1.111082
F -2.678283 -5.271526 -0.048139
F -2.898353 -5.325456 2.114142
C -1.188033 -6.666748 1.169418
F -0.534258 -6.812858 2.347175
F -0.266027 -6.771160 0.187740
F -2.013101 -7.736681 1.056338
C -0.141999 0.124303 0.002136
C 0.375502 0.708380 1.115298
H -2.334569 -2.843639 2.310810
H -2.580877 -2.812418 0.563204
H 0.362543 0.137355 2.045348
O 1.307150 4.791828 2.844551
C 1.588716 5.197599 1.729032
O 1.894155 6.489151 1.436341
C 1.851554 7.379735 2.567722
C 1.860153 8.823517 2.083129
F 0.736403 9.050213 1.351872
F 2.909691 9.009492 1.240623
C 1.937280 9.781385 3.252861
F 0.852017 9.611089 4.064756
F 3.021946 9.485250 4.030469
C 2.019116 11.207088 2.745708
F 0.939373 11.557259 2.004879
F 2.088273 12.088948 3.777014
F 3.115081 11.417991 1.980232
C 1.546551 4.348610 0.487806
C 2.141717 4.778862 -0.653329
H 0.937264 7.201442 3.148012
H 2.734365 7.174611 3.183784
H 2.718531 5.704997 -0.673613
O 5.608578 3.342081 -4.893841
C 4.763948 3.949936 -4.244006
O 4.212511 5.147932 -4.583974
C 4.718194 5.715320 -5.801254
C 3.847345 6.871524 -6.262977
F 4.275068 7.213312 -7.521827
F 2.573683 6.414207 -6.437700
C 3.846550 8.117889 -5.398286
F 5.113845 8.622071 -5.315318
F 3.109417 9.088018 -6.031432
C 3.282011 7.900211 -4.005418
F 4.085842 7.141694 -3.223787
F 3.141530 9.082675 -3.346904
F 2.062311 7.311884 -4.010996
C 4.177343 3.515501 -2.923242
C 5.119904 3.022902 -2.095914
H 4.718014 4.952317 -6.593999
H 5.752918 6.049105 -5.653296
H 6.160637 3.038559 -2.442291
O 2.518730 -1.119155 -0.898989
C 3.538909 -0.798975 -0.317731
O 3.921146 -1.237538 0.905483
C 3.091075 -2.251852 1.522170
C 3.220373 -2.102193 3.033264
F 2.825069 -0.824034 3.322279
F 4.537550 -2.175786 3.381517
C 2.387347 -3.040887 3.883765
F 1.068148 -2.832227 3.608398
F 2.536554 -2.713792 5.206354
C 2.779069 -4.486675 3.666395
F 2.064980 -5.328903 4.448365
F 4.091001 -4.700615 3.938467
F 2.578546 -4.872845 2.382268
C 4.577943 0.109101 -0.896076
C 5.472055 -0.416823 -1.764203
H 3.478373 -3.210287 1.181450
H 2.043208 -2.135310 1.225659
H 6.288480 0.199548 -2.138718
O 6.152937 -0.996543 -6.447293
C 6.306423 -1.319413 -5.280146
O 7.456658 -1.126352 -4.573143
C 8.598547 -0.743519 -5.360541
C 8.711874 0.737294 -5.727583
F 7.935861 0.999874 -6.812654
F 9.996735 0.952246 -6.139541
C 8.372878 1.671356 -4.586772
F 7.103028 1.453837 -4.147362
F 9.161637 1.371429 -3.499901
C 8.608150 3.112426 -4.997901
F 7.937628 3.496481 -6.106598
F 9.919031 3.358635 -5.230648
F 8.240178 3.958339 -3.994666
C 5.287884 -2.046085 -4.447972
C 4.151562 -2.394496 -5.096255
H 9.475361 -1.025873 -4.765944
H 8.654786 -1.368337 -6.262855
H 4.025379 -2.092923 -6.139698
O -8.618178 -0.201785 3.977693
C -8.170673 0.047485 5.084610
O -8.607974 -0.468244 6.259273
C -9.680568 -1.418050 6.198820
C -9.981467 -1.944974 7.597911
F -10.462107 -0.907567 8.343905
F -11.011907 -2.833237 7.500362
C -8.786295 -2.582827 8.282593
F -8.330011 -3.636178 7.540847
F -7.735598 -1.713119 8.360534
C -9.176707 -3.040044 9.674760
F -10.182911 -3.944377 9.659342
F -9.569873 -2.011774 10.463220
F -8.128500 -3.634197 10.305821
C -7.025675 0.964671 5.388833
C -6.024206 1.175660 4.510758
H -10.568131 -0.918765 5.799133
H -9.427300 -2.245104 5.530091
H -5.216556 1.846543 4.803811
O -6.544543 0.637914 -1.446109
C -6.599416 0.512258 -0.231769
O -7.614396 -0.073786 0.456111
C -8.660124 -0.661164 -0.344775
C -8.332255 -2.109402 -0.698032
F -7.221531 -2.153781 -1.473096
F -8.028097 -2.782124 0.445430
C -9.502827 -2.754573 -1.404392
F -9.810994 -2.056107 -2.532986
F -10.616071 -2.683262 -0.615193
C -9.176030 -4.197641 -1.737817
F -8.902517 -4.936607 -0.635765
F -8.116489 -4.311228 -2.571110
F -10.227178 -4.798727 -2.355867
C -5.585934 1.030220 0.729132
C -4.293616 1.224245 0.397677
H -8.842808 -0.055482 -1.242926
H -9.560869 -0.613693 0.278280
H -3.654196 1.666174 1.167792
O -2.220380 2.354952 -3.847109
C -1.308947 1.703247 -3.354095
O -0.185709 1.287649 -3.991827
C -0.054188 1.623940 -5.393691
C 0.375700 0.381825 -6.171828
F 1.402455 -0.216443 -5.507022
F -0.644675 -0.512475 -6.187321
C 0.803089 0.724043 -7.582513
F 1.881995 1.562571 -7.536003
F -0.175470 1.425771 -8.221916
C 1.142650 -0.551230 -8.333530
F 0.071793 -1.367655 -8.481342
F 1.598649 -0.277861 -9.584928
F 2.108966 -1.268591 -7.709961
C -1.286727 1.289609 -1.908690
C -0.187959 0.713231 -1.344288
H -0.978696 2.039737 -5.815300
H 0.732470 2.385640 -5.454675
H 0.674853 0.451842 -1.959838
O 3.260057 2.663580 2.009704
C 2.197448 2.117431 2.249813
O 1.835417 1.653102 3.478796
C 2.692612 2.135482 4.547230
C 3.994869 1.340475 4.731767
F 3.706551 0.176329 5.379919
F 4.518723 0.978953 3.530527
C 5.005801 2.142471 5.530478
F 5.252649 3.334159 4.911021
F 4.471260 2.476131 6.745831
C 6.288332 1.351309 5.705697
F 6.098211 0.183282 6.359827
F 7.193737 2.060247 6.428426
F 6.880063 1.058822 4.524121
C 1.089018 1.982861 1.250435
C 0.794044 3.091992 0.536118
H 2.097226 2.075939 5.465906
H 2.894139 3.199092 4.376629
H -0.048236 3.081507 -0.137568
O 0.252103 4.333040 -3.788786
C 0.528194 4.522183 -2.615570
O -0.292527 5.099020 -1.708378
C -1.524697 5.640044 -2.223436
C -2.204520 6.381295 -1.079010
F -2.447503 5.484682 -0.077419
F -1.330418 7.287637 -0.561427
C -3.484539 7.057829 -1.512678
F -3.235919 7.897288 -2.560264
F -4.358734 6.122904 -1.985409
C -4.084598 7.816371 -0.342457
F -4.372486 6.995920 0.697992
F -3.265664 8.784159 0.127955
F -5.246334 8.422004 -0.692170
C 1.875967 4.215580 -1.975518
C 2.736406 3.658665 -2.840551
H -2.151425 4.813262 -2.571422
H -1.295823 6.322940 -3.052199
H 2.304995 3.310674 -3.795158
O 6.091689 3.273553 1.386567
C 5.589228 3.583963 0.318979
O 5.501957 4.855171 -0.159410
C 6.164420 5.841915 0.656729
C 5.902588 7.219383 0.068490
F 6.204450 7.175761 -1.263886
F 4.566583 7.465249 0.138626
C 6.686854 8.352598 0.710071
F 8.029398 8.153808 0.521108
F 6.396875 9.526451 0.072353
C 6.386024 8.476331 2.193601
F 5.065263 8.618807 2.454139
F 7.020547 9.535777 2.752604
F 6.795296 7.376383 2.872629
C 5.052180 2.621526 -0.710236
C 4.796856 1.385514 -0.236069
H 7.239089 5.620509 0.663014
H 5.750844 5.772096 1.669535
H 4.832819 1.252616 0.847995
O 5.739159 -3.859718 -0.605724
C 6.059144 -2.688364 -0.772278
O 6.753192 -1.927374 0.112621
C 6.976588 -2.510780 1.416363
C 8.308830 -3.250377 1.478084
F 9.314805 -2.371811 1.210619
F 8.343919 -4.162704 0.464687
C 8.557712 -3.962267 2.800076
F 7.538331 -4.836789 3.052420
F 9.688502 -4.730335 2.700392
C 8.712866 -2.980495 3.944500
F 7.580440 -2.262958 4.148518
F 8.982487 -3.612643 5.112991
F 9.710857 -2.092511 3.733990
C 5.686111 -1.848387 -1.963564
C 5.619502 -2.537633 -3.121911
H 6.140271 -3.175032 1.681826
H 6.961298 -1.663431 2.104398
H 5.830239 -3.610372 -3.113296
O 2.768152 -4.338801 -6.744832
C 2.358357 -4.128628 -5.602644
O 1.266517 -4.713436 -5.051996
C 0.519952 -5.558951 -5.946844
C -0.723313 -6.093639 -5.231294
F -0.330108 -6.843009 -4.162316
F -1.439261 -5.048075 -4.727854
C -1.588515 -6.914488 -6.165100
F -2.005354 -6.134459 -7.207462
F -0.847197 -7.914687 -6.728879
C -2.776189 -7.486297 -5.414897
F -2.404778 -8.328256 -4.420119
F -3.576147 -8.201365 -6.248164
F -3.553495 -6.527431 -4.861375
C 3.039334 -3.216700 -4.627399
C 2.589319 -3.127354 -3.406603
H 1.159735 -6.394808 -6.255222
H 0.225703 -4.969454 -6.821963
H 2.170039 -3.077859 -2.428442
