512
Molecule ID: homopoly_5919576
O 2.126744 3.629720 -10.591570
C 2.947018 2.752379 -10.816224
O 4.043844 2.876476 -11.594975
C 4.150992 4.183586 -12.151039
C 5.114859 4.190816 -13.306810
C 6.464713 4.498949 -13.111379
C 7.336748 4.560121 -14.197524
C 6.867749 4.302302 -15.483808
C 5.531786 3.965390 -15.684988
C 4.659538 3.904816 -14.600723
C 2.783450 1.461537 -10.210647
C 2.404018 0.353676 -9.632146
C 3.201633 -0.891194 -9.825268
C 2.568076 -2.147099 -10.041753
C 3.321138 -3.310190 -10.247058
C 4.703822 -3.235889 -10.238385
O 5.487725 -4.339353 -10.429740
C 5.338667 -2.012655 -10.020675
O 6.699367 -1.954859 -9.990273
C 4.601581 -0.857550 -9.832315
H 3.178429 4.543780 -12.516192
H 4.491743 4.875712 -11.372182
H 6.843586 4.707546 -12.112408
H 8.381711 4.818624 -14.043459
H 7.546247 4.359516 -16.332806
H 5.164463 3.761176 -16.688924
H 3.615298 3.647086 -14.770088
H 1.487179 -2.240571 -10.048924
H 2.813158 -4.253002 -10.409520
H 4.920521 -5.124941 -10.357588
H 6.986295 -2.885765 -10.061979
H 5.136057 0.077625 -9.669926
O 2.622948 -0.698407 -4.945133
C 2.233755 -0.621195 -6.100155
O 2.084458 -1.689938 -6.927732
C 2.256777 -2.960956 -6.286542
C 3.628759 -3.555458 -6.493336
C 4.797663 -2.799316 -6.317615
C 6.058353 -3.377612 -6.461924
C 6.168822 -4.726997 -6.780295
C 5.023452 -5.500256 -6.940511
C 3.762078 -4.921498 -6.790823
C 1.678490 0.661273 -6.715595
C 2.087246 1.789411 -6.062042
C 3.583980 1.825271 -5.754019
C 4.492114 1.636640 -6.820647
C 5.874991 1.532554 -6.611756
C 6.357642 1.651731 -5.325538
O 7.694034 1.423987 -5.094167
C 5.487374 1.948862 -4.263915
O 6.029481 2.206631 -3.038842
C 4.106803 2.041868 -4.469404
H 1.506268 -3.610774 -6.752423
H 2.017010 -2.941240 -5.216818
H 4.742666 -1.747819 -6.056862
H 6.951168 -2.767226 -6.336957
H 7.151987 -5.174132 -6.906766
H 5.113483 -6.558941 -7.180994
H 2.881805 -5.546967 -6.895592
H 4.131704 1.523766 -7.832438
H 6.546587 1.309492 -7.432121
H 7.755403 0.995515 -4.220339
H 6.928653 2.554278 -3.223742
H 3.443424 2.243462 -3.621607
O -1.027253 4.997567 -7.052566
C -1.438627 4.730576 -5.923873
O -2.726522 4.702764 -5.506672
C -3.710194 5.139070 -6.467402
C -5.018134 4.400318 -6.288688
C -5.186251 3.356239 -5.368378
C -6.367616 2.614364 -5.312463
C -7.415787 2.919415 -6.174379
C -7.284005 3.967843 -7.079691
C -6.094687 4.702025 -7.139242
C -0.547530 4.382015 -4.763558
C -0.491873 5.308315 -3.746950
C -0.860505 6.765406 -4.073371
C -1.551506 7.593554 -3.170448
C -1.863674 8.927540 -3.466363
C -1.444588 9.475387 -4.662125
O -1.741676 10.770723 -4.955146
C -0.695665 8.714143 -5.545845
O -0.268454 9.304801 -6.696024
C -0.382001 7.387192 -5.243772
H -3.880495 6.214330 -6.281072
H -3.362824 4.994102 -7.498750
H -4.380135 3.089543 -4.689424
H -6.453420 1.789929 -4.608155
H -8.331313 2.338954 -6.139642
H -8.101685 4.208790 -7.755428
H -5.998020 5.500118 -7.876325
H -1.816105 7.255027 -2.173180
H -2.391532 9.542778 -2.741754
H -1.320195 10.921898 -5.824396
H 0.386738 8.714871 -7.114627
H 0.247042 6.844067 -5.936108
O -2.158193 4.128667 1.727372
C -1.693219 4.951457 0.967049
O -2.205296 6.173688 0.688704
C -3.461936 6.411566 1.347626
C -4.189655 7.552497 0.682284
C -3.560382 8.792864 0.504216
C -4.242687 9.856191 -0.085783
C -5.565465 9.694714 -0.494307
C -6.205527 8.470719 -0.312574
C -5.527509 7.404328 0.275921
C -0.424855 4.733150 0.200098
C 0.671149 4.664794 1.029743
C 2.039917 4.417898 0.513032
C 3.038774 5.405163 0.646305
C 4.318434 5.202845 0.124754
C 4.610414 3.992590 -0.499831
O 5.814666 3.852732 -1.102947
C 3.657366 2.980130 -0.558127
O 3.967334 1.745694 -1.063957
C 2.371051 3.203168 -0.082777
H -3.292241 6.666464 2.392193
H -4.083516 5.516949 1.289802
H -2.532546 8.923772 0.825041
H -3.745579 10.811120 -0.223608
H -6.095963 10.524610 -0.953877
H -7.240108 8.350995 -0.622411
H -6.044570 6.462366 0.421128
H 2.814319 6.368937 1.097767
H 5.058635 5.984821 0.151893
H 5.604973 3.329498 -1.901365
H 4.935227 1.675295 -1.146625
H 1.612735 2.439577 -0.174909
O 2.877780 2.849021 5.562885
C 2.609644 2.570358 4.402160
O 3.488898 2.099438 3.488385
C 4.866221 2.312781 3.842275
C 5.562077 1.205542 4.605074
C 5.135106 0.796331 5.875037
C 5.823052 -0.189571 6.588331
C 6.961979 -0.769423 6.048288
C 7.412708 -0.363113 4.798053
C 6.724924 0.626141 4.086172
C 1.235670 2.792160 3.787371
C 0.326210 1.800540 4.102929
C 0.608174 1.065926 5.414951
C 1.467964 -0.041317 5.521916
C 1.760338 -0.586832 6.785516
C 1.227007 -0.021827 7.928324
O 1.555565 -0.521583 9.159442
C 0.366339 1.061776 7.835002
O -0.121841 1.585306 8.997636
C 0.046920 1.595259 6.588158
H 4.987312 3.259348 4.385839
H 5.387359 2.482405 2.886784
H 4.274236 1.248029 6.358584
H 5.463718 -0.486292 7.570067
H 7.495077 -1.538035 6.599152
H 8.302953 -0.815065 4.369459
H 7.113839 0.933860 3.117946
H 1.973407 -0.444269 4.648335
H 2.428359 -1.436677 6.872597
H 1.099166 0.081550 9.780996
H -0.700006 2.340791 8.779996
H -0.595743 2.460397 6.541339
O -3.420010 1.338904 1.206708
C -3.637270 0.352350 1.886825
O -4.869059 -0.149317 2.130920
C -5.929898 0.757415 1.839279
C -7.174754 0.276439 2.548199
C -7.621157 0.914707 3.711923
C -8.769812 0.479990 4.372674
C -9.484017 -0.614793 3.879891
C -9.034351 -1.280667 2.739499
C -7.888768 -0.840321 2.085262
C -2.539369 -0.421707 2.576948
C -2.737692 -1.716093 3.018243
C -3.853668 -1.777329 4.083277
C -3.856274 -0.874299 5.168345
C -4.918030 -0.830520 6.083992
C -6.003608 -1.662480 5.930426
O -7.032195 -1.596635 6.814512
C -6.013717 -2.595862 4.898118
O -7.106503 -3.409992 4.771714
C -4.939179 -2.675633 4.007107
H -6.102763 0.769213 0.753849
H -5.684539 1.776476 2.183210
H -7.058970 1.754378 4.118589
H -9.099409 0.982308 5.279542
H -10.377122 -0.962986 4.394807
H -9.576797 -2.150123 2.373127
H -7.539004 -1.373132 1.212402
H -3.012704 -0.215632 5.339238
H -4.880572 -0.110729 6.899694
H -7.822152 -1.850407 6.295663
H -6.986158 -3.939685 3.969815
H -4.958546 -3.453723 3.253003
O 0.576021 -6.386056 1.897675
C 0.210114 -5.229550 1.755920
O 0.548429 -4.471850 0.671059
C 0.965504 -5.250049 -0.475218
C 2.446406 -5.245792 -0.730635
C 3.297036 -6.082777 -0.001981
C 4.650455 -6.179206 -0.333899
C 5.174633 -5.411159 -1.378603
C 4.340023 -4.551464 -2.094765
C 2.979421 -4.485839 -1.781055
C -0.774737 -4.542056 2.684934
C -0.537282 -4.776992 4.020652
C -1.574470 -4.360121 5.001258
C -2.681250 -5.184471 5.266158
C -3.542043 -4.891120 6.325781
C -3.292983 -3.779128 7.115369
O -4.093157 -3.454927 8.171890
C -2.204734 -2.949620 6.846251
O -1.983197 -1.853035 7.627329
C -1.357539 -3.223044 5.786586
H 0.598312 -6.282346 -0.430978
H 0.465462 -4.803821 -1.338203
H 2.910564 -6.696043 0.812671
H 5.299676 -6.851679 0.225513
H 6.227383 -5.486125 -1.633391
H 4.746408 -3.947289 -2.902805
H 2.341724 -3.818853 -2.368189
H -2.861821 -6.078367 4.678290
H -4.381142 -5.548842 6.539013
H -4.972026 -3.850292 8.006648
H -2.631013 -1.952091 8.352726
H -0.499205 -2.572827 5.623480
O -1.363254 -9.425316 5.302152
C -0.749348 -8.393693 5.051964
O -0.464735 -7.993661 3.785315
C -0.789328 -8.925486 2.735813
C 0.363327 -9.849579 2.440692
C 1.682085 -9.373625 2.390219
C 2.733813 -10.229401 2.061292
C 2.481951 -11.569438 1.782674
C 1.175720 -12.053693 1.823507
C 0.120457 -11.198601 2.150181
C -0.262178 -7.358175 6.075059
C -0.477981 -7.623325 7.414232
C -0.162764 -6.649575 8.548894
C 0.062751 -7.063011 9.877965
C 0.427014 -6.146117 10.896420
C 0.507477 -4.807854 10.594992
O 0.898941 -3.886273 11.527838
C 0.233207 -4.372925 9.306618
O 0.351507 -3.073716 8.955531
C -0.138904 -5.281894 8.323690
H -1.012691 -8.344271 1.839115
H -1.700166 -9.486661 2.979429
H 1.897412 -8.325703 2.604378
H 3.749654 -9.843606 2.027670
H 3.297446 -12.235969 1.525377
H 0.972831 -13.096514 1.591122
H -0.894550 -11.592052 2.174221
H -0.006953 -8.101391 10.173837
H 0.607166 -6.512434 11.902497
H 1.827907 -4.092399 11.743529
H 0.542044 -2.552786 9.749932
H -0.343266 -4.882156 7.346724
O -0.395508 -0.769450 -10.688385
C -0.015566 0.272723 -10.174951
O -0.364561 1.525514 -10.551074
C -1.369877 1.612400 -11.564333
C -2.046382 2.968143 -11.495220
C -1.429735 4.079887 -10.895870
C -2.082880 5.310569 -10.817199
C -3.358893 5.448850 -11.355449
C -3.978124 4.370318 -11.979900
C -3.322490 3.138240 -12.054552
C 1.037292 0.375915 -9.099177
C 0.663282 0.535899 -7.790139
C -0.792061 0.389479 -7.539191
C -1.308215 -0.873700 -7.172322
C -2.696703 -1.093824 -7.138787
C -3.560680 -0.060288 -7.470001
O -4.920390 -0.226543 -7.476469
C -3.052497 1.193283 -7.825611
O -3.904185 2.187427 -8.197740
C -1.683960 1.431962 -7.848456
H -0.886259 1.518085 -12.547213
H -2.131718 0.839571 -11.424815
H -0.442910 3.987342 -10.455636
H -1.595799 6.144252 -10.320860
H -3.870251 6.403350 -11.284553
H -4.972600 4.479782 -12.403366
H -3.822374 2.301388 -12.532847
H -0.639426 -1.690006 -6.939447
H -3.057834 -2.071750 -6.844124
H -5.099913 -1.152236 -7.246240
H -4.788351 1.906272 -7.905505
H -1.327095 2.409681 -8.155928
O 2.079833 5.292954 -5.508241
C 1.928334 4.308491 -6.219934
O 2.415096 4.195006 -7.486630
C 3.419094 5.163455 -7.820094
C 2.915340 6.526531 -8.215876
C 2.095403 6.704794 -9.336412
C 1.746479 7.984959 -9.777234
C 2.191576 9.106449 -9.084137
C 2.970636 8.950747 -7.940459
C 3.326174 7.672282 -7.507034
C 1.286284 3.025174 -5.776431
C 0.183536 3.082783 -4.939141
C -0.397009 1.820125 -4.371205
C -1.745510 1.520082 -4.570099
C -2.314237 0.319198 -4.137547
C -1.517673 -0.641166 -3.528996
O -2.061298 -1.809666 -3.078258
C -0.180624 -0.384584 -3.337761
O 0.616785 -1.382761 -2.831248
C 0.367707 0.855081 -3.689512
H 4.143529 5.229438 -7.003621
H 3.987215 4.761122 -8.666377
H 1.729153 5.848888 -9.886726
H 1.129079 8.097405 -10.666725
H 1.928313 10.103081 -9.435332
H 3.307376 9.823301 -7.390071
H 3.937439 7.568049 -6.611792
H -2.403013 2.232581 -5.073846
H -3.376286 0.156034 -4.280603
H -2.870325 -1.539311 -2.595869
H 1.491700 -0.979673 -2.677918
H 1.412890 1.061097 -3.475235
O 2.390504 5.473252 -2.572693
C 1.308289 5.823165 -2.128536
O 1.022347 6.979286 -1.483426
C 2.026386 7.989037 -1.602444
C 1.348562 9.339767 -1.480832
C 0.368354 9.568071 -0.502855
C -0.259975 10.807401 -0.411427
C 0.094475 11.839812 -1.277392
C 1.077837 11.631141 -2.242563
C 1.701971 10.388731 -2.343896
C 0.038576 5.075614 -2.353677
C -0.691590 4.575122 -1.299080
C -2.053121 3.983786 -1.628796
C -3.202035 4.777837 -1.806912
C -4.490224 4.241751 -1.886011
C -4.656471 2.877139 -1.790480
O -5.890326 2.307324 -1.842497
C -3.530329 2.063972 -1.629736
O -3.686977 0.709836 -1.572425
C -2.252346 2.598903 -1.542300
H 2.531835 7.924743 -2.577149
H 2.753062 7.881321 -0.796520
H 0.089205 8.779221 0.188450
H -1.021798 10.972930 0.340524
H -0.399353 12.805355 -1.200225
H 1.345281 12.429371 -2.925211
H 2.457756 10.235685 -3.106623
H -3.135910 5.858525 -1.812453
H -5.339212 4.912973 -1.998278
H -6.522734 2.997661 -2.104860
H -4.397309 0.556529 -0.935200
H -1.412968 1.927706 -1.373781
O -0.889080 6.752863 3.219716
C 0.222464 6.452518 2.816731
O 1.294920 7.290870 2.758791
C 1.234754 8.365420 3.716335
C 1.310333 9.740056 3.119633
C 0.241581 10.628180 3.294276
C 0.348729 11.959194 2.887905
C 1.523186 12.414255 2.293598
C 2.589107 11.533506 2.099258
C 2.479577 10.198537 2.503089
C 0.613942 5.017789 2.501547
C 0.941765 4.270293 3.602118
C 1.353254 5.107943 4.816396
C 0.514896 5.318607 5.916883
C 0.995666 6.007197 7.049579
C 2.305422 6.449197 7.083048
O 2.775117 7.072589 8.205556
C 3.151800 6.223909 6.007550
O 4.447226 6.643406 6.125351
C 2.683409 5.592247 4.867777
H 2.112878 8.256752 4.366148
H 0.375665 8.280732 4.392124
H -0.679274 10.294601 3.772231
H -0.485142 12.644546 3.042071
H 1.612906 13.448830 1.989257
H 3.509583 11.893634 1.643146
H 3.331277 9.533090 2.366540
H -0.497975 4.947668 5.941152
H 0.350949 6.157253 7.912339
H 3.736636 7.201714 8.014974
H 4.930401 6.377138 5.317553
H 3.347558 5.428340 4.021309
O -3.402389 1.877104 3.976037
C -2.244321 2.245477 4.074831
O -1.900738 3.420264 4.663950
C -2.949821 4.407051 4.665971
C -4.157152 4.146001 5.543941
C -4.031620 3.731043 6.867861
C -5.180776 3.499329 7.637418
C -6.448641 3.690016 7.087314
C -6.577674 4.129520 5.766758
C -5.437832 4.358526 5.008427
C -1.041662 1.476527 3.556510
C -1.244603 0.300085 2.842244
C -0.080245 -0.267857 2.114460
C 0.593855 -1.414333 2.580526
C 1.642135 -1.934458 1.825349
C 2.033559 -1.309840 0.651173
O 3.101670 -1.750092 -0.073247
C 1.327653 -0.232417 0.162526
O 1.726407 0.331927 -1.002427
C 0.246712 0.274827 0.872194
H -2.514741 5.367442 4.962101
H -3.292690 4.542880 3.644524
H -3.051638 3.568311 7.311678
H -5.084067 3.161808 8.662557
H -7.335604 3.503478 7.682748
H -7.561997 4.283190 5.341367
H -5.550433 4.674051 3.965584
H 0.302613 -1.888074 3.513013
H 2.154728 -2.829686 2.158448
H 3.096476 -2.725761 -0.020712
H 2.681562 0.108112 -1.073693
H -0.316084 1.111786 0.482984
O -3.214285 -2.076404 -0.242324
C -3.640366 -2.593252 0.787118
O -4.881613 -3.064582 0.993774
C -5.760115 -3.447035 -0.095353
C -5.768306 -2.729341 -1.423143
C -5.011084 -3.239051 -2.488334
C -5.056407 -2.655529 -3.757926
C -5.875672 -1.553074 -3.985871
C -6.642255 -1.039442 -2.941133
C -6.584946 -1.620037 -1.669810
C -2.740878 -2.838289 1.999567
C -2.021496 -4.023343 1.949162
C -2.536821 -5.043617 0.943991
C -3.273500 -6.142772 1.408676
C -3.665410 -7.154176 0.526732
C -3.306357 -7.065964 -0.802218
O -3.678538 -8.085919 -1.642945
C -2.605871 -5.974463 -1.287349
O -2.302309 -5.927448 -2.616607
C -2.229564 -4.944885 -0.420469
H -6.772145 -3.400903 0.318052
H -5.593380 -4.518997 -0.256657
H -4.372313 -4.102634 -2.337721
H -4.439394 -3.056435 -4.553716
H -5.916315 -1.091844 -4.963671
H -7.282729 -0.180219 -3.116939
H -7.213279 -1.197967 -0.894049
H -3.526505 -6.229470 2.465767
H -4.231204 -8.013707 0.897113
H -3.345561 -7.821287 -2.529072
H -1.898191 -5.063657 -2.817507
H -1.691229 -4.079658 -0.807816
O 2.876670 -5.694002 3.592380
C 2.072250 -4.942044 4.134079
O 2.331974 -3.685448 4.569516
C 3.727829 -3.389268 4.790714
C 4.623533 -3.165453 3.587154
C 4.690498 -1.921883 2.946890
C 5.544902 -1.725946 1.859183
C 6.359193 -2.760853 1.404230
C 6.321026 -3.992267 2.047195
C 5.466056 -4.192365 3.128178
C 0.707100 -5.415566 4.623755
C 0.809910 -6.402138 5.595032
C 2.168323 -6.732156 6.189955
C 2.765337 -5.863530 7.126174
C 3.949409 -6.217168 7.783007
C 4.582566 -7.400956 7.460100
O 5.758342 -7.746223 8.076728
C 4.034086 -8.251906 6.495504
O 4.680578 -9.415014 6.191602
C 2.822755 -7.926725 5.875479
H 3.736412 -2.458031 5.370205
H 4.173931 -4.133316 5.458066
H 4.070675 -1.095691 3.277635
H 5.568325 -0.760259 1.359991
H 7.023559 -2.600175 0.556084
H 6.956858 -4.802941 1.701742
H 5.454788 -5.157649 3.620664
H 2.308190 -4.913011 7.360902
H 4.358267 -5.526435 8.514531
H 5.959532 -7.085133 8.748777
H 4.381299 -9.707568 5.310231
H 2.379839 -8.616417 5.156912
O -2.419152 -10.323065 9.014209
C -2.164525 -9.445838 8.203171
O -3.098163 -8.775747 7.480878
C -4.396382 -9.366795 7.546136
C -5.367627 -8.461595 6.835056
C -5.294636 -8.284238 5.444333
C -6.194848 -7.443174 4.792117
C -7.172046 -6.771691 5.518960
C -7.253802 -6.934234 6.900044
C -6.356341 -7.776047 7.557773
C -0.799778 -9.013863 7.832800
C 0.214108 -9.797994 8.102153
C 1.411597 -10.517922 8.406285
C 2.362417 -9.933470 9.261696
C 3.549703 -10.605819 9.557060
C 3.783635 -11.843695 8.980324
O 4.942845 -12.533072 9.188628
C 2.828491 -12.416260 8.139434
O 3.087658 -13.630479 7.564944
C 1.641923 -11.764167 7.850122
H -4.364622 -10.337161 7.024697
H -4.698910 -9.517599 8.588478
H -4.527055 -8.806038 4.874376
H -6.132165 -7.313058 3.711006
H -7.877692 -6.109481 5.020358
H -8.017345 -6.408051 7.470320
H -6.430595 -7.896059 8.635459
H 2.200883 -8.950683 9.690141
H 4.281269 -10.135230 10.218468
H 5.567904 -11.933201 9.632700
H 3.965149 -13.886645 7.900792
H 0.923080 -12.223080 7.170234
