544
Molecule ID: homopoly_15086370
C 4.146564 -4.340768 8.483973
C 3.303035 -5.601870 8.581887
C 3.977103 -6.844646 7.988105
C 4.273183 -6.724376 6.491394
C 4.797760 -8.039766 5.920412
O 5.216830 -7.857486 4.557000
C 6.509594 -7.487532 4.408177
O 7.309967 -7.229452 5.298501
C 6.932749 -7.455575 3.032964
C 7.453161 -7.463353 1.834186
C 8.935128 -7.626368 1.693018
C 9.821246 -7.323325 2.748638
C 11.206887 -7.425902 2.587464
C 11.721936 -7.829884 1.364332
O 13.074883 -7.898304 1.199109
C 10.868387 -8.145791 0.310316
O 11.426802 -8.485568 -0.889577
C 9.491171 -8.058556 0.475137
H 4.267635 -4.023691 7.441421
H 3.655451 -3.524437 9.023112
H 5.142754 -4.480743 8.922343
H 3.092267 -5.796821 9.641057
H 2.337838 -5.429112 8.090294
H 4.910524 -7.045520 8.526369
H 3.319108 -7.707644 8.161979
H 5.005515 -5.928862 6.308150
H 3.365357 -6.437068 5.943652
H 5.608153 -8.454260 6.532466
H 3.997643 -8.788317 5.910793
H 9.448744 -6.980107 3.713891
H 11.877660 -7.172537 3.407907
H 13.198296 -8.214256 0.282174
H 10.741172 -8.400656 -1.577662
H 8.849160 -8.307586 -0.362419
C -1.883269 -11.151320 0.217380
C -0.420486 -11.402352 -0.116240
C 0.316521 -10.129521 -0.543993
C 0.656748 -9.208856 0.626145
C 1.271017 -7.883733 0.175740
O 2.466368 -8.108318 -0.584335
C 3.383141 -7.110082 -0.496143
O 3.247353 -6.048097 0.088283
C 4.699754 -7.609615 -0.950509
C 4.888495 -7.909066 -2.261473
C 6.152729 -8.651330 -2.595318
C 6.176604 -10.057842 -2.541976
C 7.308118 -10.791033 -2.901770
C 8.444290 -10.102823 -3.288411
O 9.591950 -10.753667 -3.649514
C 8.453347 -8.712729 -3.319392
O 9.605537 -8.053606 -3.655915
C 7.313037 -7.981425 -2.997922
H -1.989917 -10.469312 1.067189
H -2.409654 -10.723561 -0.641196
H -2.373569 -12.095183 0.480887
H -0.374018 -12.123964 -0.941025
H 0.082365 -11.863039 0.741489
H 1.249585 -10.421943 -1.039727
H -0.288403 -9.586173 -1.276551
H 1.363446 -9.731153 1.281157
H -0.238510 -8.991493 1.218404
H 0.563437 -7.350362 -0.459765
H 1.474571 -7.289542 1.073771
H 5.287732 -10.611156 -2.240103
H 7.277412 -11.873041 -2.869805
H 9.396696 -11.703872 -3.729611
H 10.175323 -8.749429 -4.046977
H 7.338484 -6.900178 -3.066556
C 9.963905 -2.286910 -7.887650
C 8.889608 -3.037784 -7.108714
C 7.522050 -2.367767 -7.258116
C 6.405338 -3.072197 -6.489777
C 6.498117 -2.923957 -4.965400
O 5.314146 -3.434009 -4.312489
C 5.150867 -4.776133 -4.323121
O 6.050834 -5.547112 -4.642151
C 3.756505 -5.240176 -3.919667
C 2.672875 -4.389977 -4.059981
C 2.713410 -3.294378 -5.108219
C 2.954246 -1.941698 -4.798383
C 2.989991 -0.957473 -5.798774
C 2.763561 -1.323357 -7.114712
O 2.804805 -0.369046 -8.090124
C 2.507904 -2.645416 -7.443806
O 2.284278 -2.948333 -8.761324
C 2.494408 -3.626546 -6.456870
H 10.932751 -2.775316 -7.753675
H 10.053383 -1.254593 -7.534654
H 9.729834 -2.270754 -8.956637
H 9.178697 -3.074733 -6.056872
H 8.837957 -4.074013 -7.464779
H 7.580082 -1.319823 -6.943825
H 7.247204 -2.363837 -8.321833
H 5.449043 -2.662083 -6.818747
H 6.380393 -4.133002 -6.764343
H 7.386079 -3.420581 -4.565041
H 6.570976 -1.862287 -4.697440
H 3.164017 -1.624688 -3.782242
H 3.200523 0.075417 -5.551651
H 2.562812 -0.846015 -8.910604
H 2.039987 -3.889350 -8.815264
H 2.287485 -4.649709 -6.737641
C 2.119685 -1.264852 5.382224
C 1.314406 -1.473991 4.110248
C 1.548747 -2.865192 3.511920
C 0.852773 -3.002047 2.159434
C 1.154781 -4.331756 1.482712
O 0.817909 -4.229065 0.084284
C -0.339792 -4.790577 -0.334349
O -1.041725 -5.494807 0.383137
C -0.665024 -4.294191 -1.737489
C -1.959600 -3.855066 -1.959121
C -3.102416 -4.518598 -1.211595
C -4.132989 -3.772721 -0.635799
C -5.228646 -4.379091 0.001202
C -5.326578 -5.756482 0.023244
O -6.368127 -6.397674 0.632879
C -4.356784 -6.522096 -0.603895
O -4.460786 -7.884734 -0.610175
C -3.268031 -5.916209 -1.226645
H 1.822592 -1.974817 6.159315
H 3.189745 -1.390640 5.190130
H 1.959011 -0.253163 5.766902
H 1.601477 -0.704708 3.382278
H 0.249813 -1.338800 4.324554
H 2.627801 -3.025038 3.386425
H 1.182989 -3.634936 4.201367
H 1.185653 -2.192559 1.505578
H -0.231502 -2.884459 2.271848
H 0.645419 -5.162320 1.981180
H 2.228829 -4.521753 1.544860
H -4.101589 -2.696946 -0.673253
H -5.971018 -3.742307 0.470405
H -6.879588 -5.724352 1.113550
H -5.286419 -8.060332 -0.109167
H -2.544775 -6.559425 -1.709101
C 3.695459 2.021127 0.599069
C 2.861635 1.682294 -0.623422
C 1.428430 2.200030 -0.522067
C 0.625459 1.635094 0.651966
C 0.123143 0.214059 0.428431
O -0.838664 0.212340 -0.637535
C -1.601499 -0.913450 -0.698333
O -1.534095 -1.877564 0.034181
C -2.652386 -0.698770 -1.734614
C -3.588702 0.285102 -1.423939
C -4.407883 0.883775 -2.513692
C -3.855576 1.919165 -3.282896
C -4.600390 2.566186 -4.268096
C -5.908719 2.167668 -4.483138
O -6.701703 2.756356 -5.430480
C -6.468373 1.145919 -3.718949
O -7.778866 0.805163 -3.901133
C -5.734210 0.494917 -2.723432
H 3.459996 1.358869 1.436455
H 3.526742 3.051095 0.919881
H 4.757418 1.908433 0.374113
H 3.325394 2.135993 -1.508407
H 2.865454 0.598399 -0.795446
H 1.465361 3.292457 -0.421939
H 0.915584 1.983728 -1.462555
H 1.205488 1.672671 1.581121
H -0.244072 2.280778 0.799002
H 0.947449 -0.451427 0.176702
H -0.350646 -0.130942 1.351929
H -2.821172 2.213432 -3.137468
H -4.147945 3.372793 -4.837972
H -6.143124 3.388014 -5.926709
H -8.035917 1.270583 -4.729001
H -6.186734 -0.304313 -2.149592
C 0.924409 6.529765 -5.332231
C -0.418848 6.224229 -4.689543
C -0.247488 5.364611 -3.436422
C -1.589370 5.067863 -2.784789
C -1.453749 4.217906 -1.522975
O -2.772118 3.782217 -1.181995
C -3.039473 3.516117 0.116185
O -2.282786 3.569792 1.069786
C -4.491218 3.176862 0.161226
C -5.290171 4.283363 0.361263
C -6.613757 4.451460 -0.381255
C -7.228391 5.720748 -0.458799
C -8.450226 5.946569 -1.109815
C -9.082333 4.889833 -1.718707
O -10.278797 5.086053 -2.340994
C -8.487318 3.637823 -1.715857
O -9.163048 2.635098 -2.353961
C -7.256023 3.424349 -1.084065
H 1.410053 5.611702 -5.676011
H 1.592740 7.030091 -4.623541
H 0.787089 7.188046 -6.193937
H -0.915541 7.166645 -4.425024
H -1.060044 5.706332 -5.411970
H 0.389087 5.891991 -2.723244
H 0.254487 4.423688 -3.696522
H -2.238882 4.557497 -3.505100
H -2.105165 6.005264 -2.535897
H -0.984042 4.787804 -0.714373
H -0.861671 3.326046 -1.740116
H -6.783654 6.593769 -0.000196
H -8.886981 6.939347 -1.126390
H -10.513045 4.207560 -2.702744
H -8.530878 1.922636 -2.581112
H -6.812553 2.445443 -1.153506
C -10.716755 3.664421 6.135279
C -9.307435 3.105653 6.216189
C -8.271645 4.182546 6.557206
C -6.896970 3.536940 6.752986
C -5.761831 4.545969 6.906724
O -5.454368 5.243815 5.687347
C -4.748738 4.524559 4.764733
O -4.496659 3.337025 4.820470
C -4.266240 5.472054 3.692659
C -3.102546 6.113076 4.051484
C -2.194488 5.309665 4.951474
C -1.644990 4.103933 4.458066
C -0.961354 3.217742 5.298560
C -0.780055 3.561960 6.625198
O -0.094847 2.714373 7.450260
C -1.253686 4.777518 7.115271
O -0.957925 5.089716 8.410794
C -1.975815 5.643276 6.295517
H -11.050126 4.048029 7.101869
H -10.770592 4.479725 5.408286
H -11.409838 2.881376 5.818682
H -9.047819 2.651504 5.255646
H -9.283149 2.306840 6.967577
H -8.232366 4.928522 5.756957
H -8.562349 4.704089 7.478329
H -6.702148 2.878237 5.904014
H -6.929774 2.910052 7.652918
H -6.034471 5.302543 7.646234
H -4.854598 4.054855 7.281059
H -1.789354 3.810951 3.421391
H -0.583476 2.274791 4.917338
H -0.057903 3.189907 8.303514
H -1.161027 6.035503 8.534134
H -2.372640 6.564254 6.710120
C 6.090592 2.831427 5.148682
C 5.261767 3.847705 4.374817
C 3.906253 4.090919 5.041558
C 3.060120 5.066568 4.222073
C 1.873300 5.602787 5.012524
O 0.983095 6.234515 4.078713
C 0.285064 7.298389 4.544057
O 0.261903 7.693446 5.700497
C -0.498137 7.939926 3.430898
C 0.204525 8.328676 2.323109
C -0.450934 9.025257 1.173494
C -0.766538 8.302295 0.015339
C -1.216283 8.955928 -1.141186
C -1.388120 10.329177 -1.127464
O -1.843417 11.017790 -2.213037
C -1.097676 11.052374 0.023601
O -1.271675 12.408122 0.047310
C -0.602638 10.417701 1.161162
H 5.564381 1.875837 5.230764
H 6.304196 3.187224 6.159856
H 7.043176 2.655230 4.641938
H 5.819631 4.787619 4.320555
H 5.120767 3.492966 3.349759
H 3.364664 3.141326 5.140846
H 4.063178 4.482332 6.052194
H 3.667933 5.919458 3.902763
H 2.708484 4.574356 3.305684
H 1.346155 4.793255 5.506013
H 2.231105 6.309202 5.770564
H -0.645680 7.221175 -0.003533
H -1.448236 8.369098 -2.024910
H -1.820402 10.413919 -2.974605
H -1.659207 12.619942 -0.825802
H -0.323657 11.023713 2.017470
C 11.024595 -1.002379 -3.181549
C 9.782106 -1.875505 -3.099208
C 9.877578 -2.873234 -1.946942
C 8.684923 -3.833792 -1.913588
C 8.821431 -4.819639 -0.764257
O 7.806411 -5.838817 -0.808586
C 6.853017 -5.745811 0.156414
O 6.494454 -4.715396 0.711379
C 6.581322 -7.117327 0.685597
C 5.623278 -7.941849 0.175308
C 5.403448 -9.242065 0.899279
C 4.326999 -9.357586 1.797198
C 4.128802 -10.526235 2.536914
C 5.004634 -11.581768 2.382689
O 4.830555 -12.708156 3.131079
C 6.080427 -11.482937 1.504152
O 6.938861 -12.544897 1.429430
C 6.288781 -10.321382 0.764091
H 11.914297 -1.611823 -3.366113
H 11.175627 -0.443066 -2.252673
H 10.929965 -0.284819 -4.002932
H 8.901383 -1.237457 -2.976132
H 9.665156 -2.412432 -4.043229
H 9.938687 -2.328378 -0.997756
H 10.803341 -3.453763 -2.044887
H 7.750150 -3.274729 -1.808670
H 8.615616 -4.385288 -2.858975
H 8.833751 -4.301532 0.204606
H 9.784104 -5.338681 -0.849792
H 3.653144 -8.518060 1.970732
H 3.310465 -10.592027 3.248428
H 5.584266 -13.286709 2.895422
H 7.700088 -12.289668 0.878037
H 7.147796 -10.240380 0.106336
C 0.872878 -11.602252 -8.356804
C -0.271666 -11.616771 -7.359324
C 0.183761 -11.607824 -5.900959
C 0.981562 -10.360786 -5.514532
C 1.268322 -10.317512 -4.011360
O 1.950151 -9.105993 -3.635621
C 3.301827 -9.119207 -3.832477
O 3.936690 -10.039302 -4.311524
C 3.877420 -7.791717 -3.360144
C 3.556287 -6.726154 -4.156738
C 3.476854 -7.141428 -5.632522
C 4.664737 -7.469493 -6.325621
C 4.667450 -7.815184 -7.684036
C 3.464167 -7.842119 -8.367168
O 3.381462 -8.169016 -9.690816
C 2.284552 -7.561713 -7.689291
O 1.100977 -7.605994 -8.370438
C 2.282826 -7.231170 -6.336532
H 1.388721 -10.640276 -8.342708
H 1.593460 -12.398362 -8.147568
H 0.478354 -11.750816 -9.368325
H -0.922942 -10.755629 -7.552771
H -0.870096 -12.518755 -7.518259
H 0.788596 -12.502417 -5.699645
H -0.706815 -11.675820 -5.261967
H 0.428858 -9.462576 -5.810355
H 1.929842 -10.327802 -6.061366
H 1.835976 -11.197822 -3.681455
H 0.322849 -10.333722 -3.459308
H 5.622592 -7.479449 -5.809923
H 5.606608 -8.051220 -8.171513
H 4.281230 -8.317515 -10.031776
H 1.325041 -7.968663 -9.249272
H 1.344804 -7.063842 -5.835472
C 7.576935 0.662919 0.219553
C 6.666426 -0.043015 -0.776039
C 5.778721 -1.083214 -0.091963
C 4.912534 -1.811026 -1.115383
C 3.885894 -2.707652 -0.447356
O 3.286601 -3.548758 -1.442132
C 2.101225 -3.148057 -1.954922
O 1.501448 -2.112414 -1.710285
C 1.651320 -4.176295 -2.950897
C 0.350603 -4.591184 -2.858756
C -0.152912 -5.549079 -3.899253
C -0.370841 -5.147407 -5.224935
C -1.042619 -5.981090 -6.129036
C -1.523194 -7.206547 -5.702733
O -2.229829 -7.981050 -6.569590
C -1.313989 -7.626112 -4.393971
O -1.876392 -8.814766 -4.007748
C -0.594588 -6.824266 -3.499440
H 8.302237 -0.035147 0.649183
H 8.132038 1.465582 -0.281178
H 6.998746 1.109263 1.034898
H 7.278199 -0.516614 -1.546455
H 6.036495 0.702623 -1.278699
H 6.399191 -1.810207 0.446151
H 5.145845 -0.592891 0.653522
H 4.393603 -1.085788 -1.754586
H 5.542045 -2.402498 -1.788104
H 4.354485 -3.369742 0.285689
H 3.133341 -2.122435 0.088210
H -0.094108 -4.155002 -5.565597
H -1.230464 -5.650258 -7.145366
H -2.423947 -8.797294 -6.063215
H -1.905301 -8.839756 -3.031556
H -0.427768 -7.168595 -2.481069
C -9.342612 -5.801530 -6.561307
C -8.389948 -4.958739 -5.724390
C -6.959361 -5.495728 -5.792968
C -6.013623 -4.668757 -4.921181
C -4.587047 -5.208892 -4.940744
O -3.830557 -4.508528 -3.935841
C -2.866174 -3.635063 -4.325850
O -2.598443 -3.385901 -5.494424
C -2.345856 -2.926535 -3.077616
C -2.564646 -1.552825 -3.007989
C -2.766856 -0.882252 -4.337847
C -3.991843 -0.983146 -5.042846
C -4.132636 -0.459549 -6.330227
C -3.054044 0.195942 -6.906447
O -3.132299 0.725336 -8.164126
C -1.847067 0.325493 -6.214731
O -0.798866 0.979267 -6.793115
C -1.691530 -0.210448 -4.940046
H -10.361395 -5.405487 -6.491029
H -9.047760 -5.794821 -7.615311
H -9.360965 -6.840061 -6.211037
H -8.417095 -3.922884 -6.083574
H -8.738991 -4.954577 -4.683750
H -6.944028 -6.539773 -5.458773
H -6.611728 -5.484087 -6.832629
H -6.004600 -3.626694 -5.264420
H -6.382999 -4.642058 -3.886441
H -4.569996 -6.268503 -4.666312
H -4.150007 -5.123132 -5.939711
H -4.830316 -1.516454 -4.603935
H -5.075602 -0.587513 -6.855186
H -3.937376 0.369739 -8.578054
H -1.090528 1.154735 -7.709351
H -0.724865 -0.137049 -4.448237
C -3.172110 -5.623066 5.400645
C -3.579842 -4.847490 4.155681
C -3.028018 -3.423224 4.179693
C -3.412216 -2.658805 2.912045
C -2.987895 -1.199266 2.997897
O -3.097805 -0.413381 1.791086
C -4.138522 -0.537756 0.940011
O -5.043071 -1.350561 0.940231
C -4.063606 0.631689 -0.013286
C -4.783527 1.724672 0.437051
C -5.762025 1.414495 1.550280
C -5.329628 1.382791 2.881152
C -6.160871 0.880037 3.894417
C -7.439068 0.455329 3.585133
O -8.243923 -0.022088 4.577051
C -7.897713 0.516704 2.278278
O -9.186048 0.129668 2.027566
C -7.061476 0.964900 1.253776
H -2.084390 -5.729292 5.456561
H -3.513009 -5.116644 6.308916
H -3.611450 -6.625544 5.385452
H -3.220989 -5.373485 3.264056
H -4.674568 -4.819228 4.099208
H -3.413718 -2.897206 5.061920
H -1.936001 -3.451005 4.274663
H -4.497230 -2.721667 2.781386
H -2.949904 -3.127727 2.038749
H -1.928549 -1.151800 3.270183
H -3.524591 -0.680730 3.802768
H -4.312422 1.673799 3.136462
H -5.800607 0.843611 4.920438
H -9.097805 -0.190219 4.140324
H -9.452375 0.528607 1.181443
H -7.408779 0.901541 0.228674
C -8.158897 10.928333 2.079623
C -8.088866 10.703018 0.576311
C -7.064649 9.644657 0.153343
C -5.627421 9.986069 0.544830
C -4.627991 8.892511 0.152369
O -4.855924 7.723628 0.952065
C -4.187219 6.596811 0.586765
O -3.342057 6.530368 -0.288156
C -4.760260 5.392511 1.283967
C -5.215271 5.666341 2.552688
C -6.700572 5.632402 2.772829
C -7.386310 6.859468 2.842784
C -8.783215 6.922396 2.888724
C -9.511897 5.753244 2.846276
O -10.871895 5.821287 2.869708
C -8.855033 4.533485 2.775179
O -9.576549 3.385628 2.613877
C -7.461857 4.463226 2.799584
H -8.311456 9.987810 2.616793
H -8.994394 11.589714 2.322944
H -7.247534 11.392146 2.461448
H -7.877511 11.651895 0.076186
H -9.078162 10.378187 0.231954
H -7.356162 8.686436 0.588911
H -7.123252 9.522861 -0.936172
H -5.582378 10.129111 1.627911
H -5.335189 10.930126 0.070121
H -4.724756 8.650562 -0.910528
H -3.623010 9.256162 0.359202
H -6.841171 7.797467 2.803591
H -9.289132 7.882551 2.941876
H -11.175259 5.033542 3.352382
H -10.328251 3.628911 2.042676
H -6.988328 3.495121 2.759227
C -6.851407 11.700975 9.848508
C -5.742896 11.171787 8.952400
C -6.196655 11.082994 7.496659
C -5.132861 10.477648 6.575191
C -4.973330 8.968861 6.766384
O -3.903589 8.432782 5.974924
C -4.150558 8.285119 4.646999
O -5.167479 8.605885 4.057748
C -2.968011 7.596413 4.006029
C -1.881151 8.402047 3.776748
C -2.034701 9.884622 4.056690
C -1.277436 10.506057 5.068970
C -1.417379 11.873330 5.353354
C -2.341200 12.621721 4.642146
O -2.556167 13.945632 4.901425
C -3.093282 12.024228 3.638027
O -4.009350 12.759313 2.937664
C -2.941623 10.674742 3.336596
H -7.163234 12.701277 9.534848
H -6.495218 11.770325 10.881878
H -7.721010 11.035572 9.827667
H -4.873455 11.833302 9.029225
H -5.431185 10.190782 9.326600
H -6.427494 12.093784 7.143448
H -7.121686 10.497973 7.421358
H -5.420372 10.684754 5.538776
H -4.173832 10.983749 6.723197
H -5.905071 8.429773 6.555801
H -4.706847 8.745353 7.804322
H -0.570423 9.938705 5.668745
H -0.817628 12.314826 6.139725
H -1.948053 14.223534 5.607169
H -3.960040 13.652303 3.330076
H -3.541577 10.249020 2.540958
C 1.846948 11.892168 -3.208581
C 1.950412 12.623789 -1.878058
C 2.652402 11.755399 -0.833876
C 2.634375 12.398320 0.556088
C 3.197643 11.471716 1.639398
O 2.499157 10.226993 1.535229
C 2.484398 9.407952 2.607697
O 3.056489 9.574724 3.673732
C 1.678526 8.201458 2.246886
C 2.256927 7.395503 1.395121
C 3.029645 6.628050 0.463617
C 2.531000 6.388544 -0.816767
C 3.275847 5.652916 -1.744675
C 4.519668 5.170642 -1.378794
O 5.231098 4.413706 -2.260672
C 5.029267 5.430947 -0.111415
O 6.268493 4.961734 0.211983
C 4.298491 6.160867 0.817389
H 1.282441 10.958045 -3.100945
H 2.841751 11.652079 -3.593538
H 1.331592 12.513602 -3.946547
H 2.495567 13.563021 -2.009865
H 0.942007 12.879960 -1.535072
H 3.689251 11.570674 -1.137420
H 2.151564 10.778098 -0.803210
H 1.598973 12.637147 0.822527
H 3.188957 13.342010 0.550176
H 4.267408 11.288687 1.475196
H 3.047689 11.923299 2.626604
H 1.556376 6.775023 -1.098798
H 2.886737 5.456850 -2.739273
H 5.934261 3.989782 -1.729642
H 6.886232 5.672801 -0.050651
H 4.716607 6.354890 1.800616
