560
Molecule ID: homopoly_16119626
O 1.954779 -11.422775 -3.808024
C 2.941120 -10.705672 -3.723745
O 4.164032 -11.063496 -3.247099
C 4.185131 -12.386994 -2.681721
C 5.561879 -12.691807 -2.097556
C 5.840733 -11.975109 -0.797289
C 5.088974 -12.252569 0.353940
C 5.336293 -11.568649 1.546492
C 6.341980 -10.614292 1.593704
O 6.514860 -9.918480 2.755190
C 7.118830 -10.345284 0.475260
C 6.867687 -11.027151 -0.718362
C 2.883288 -9.336898 -4.169003
C 2.721909 -8.080471 -4.495023
C 1.406561 -7.694632 -5.093864
C 0.896308 -8.371784 -6.213338
C -0.263502 -7.918436 -6.848700
C -0.921437 -6.790906 -6.365769
O -2.019659 -6.361126 -7.045386
C -0.463351 -6.131509 -5.231793
C 0.694381 -6.587115 -4.596173
H 3.402618 -12.477947 -1.921253
H 3.982307 -13.107872 -3.483840
H 6.328791 -12.436319 -2.837074
H 5.643267 -13.770934 -1.914118
H 4.294586 -12.995969 0.331355
H 4.737324 -11.777305 2.429543
H 7.375673 -9.467290 2.705192
H 7.903718 -9.599151 0.511504
H 7.467888 -10.799752 -1.599217
H 1.416506 -9.231021 -6.628286
H -0.636637 -8.428342 -7.732719
H -2.319345 -5.521725 -6.650334
H -0.974586 -5.259291 -4.835448
H 1.054966 -6.045190 -3.725468
O 5.716713 -3.488711 -6.140193
C 5.839010 -4.334629 -5.264464
O 6.985624 -4.959430 -4.916545
C 8.161655 -4.467331 -5.583543
C 8.400731 -5.198104 -6.905373
C 8.687015 -6.679052 -6.773524
C 7.978522 -7.599297 -7.562620
C 8.221440 -8.971106 -7.457573
C 9.184244 -9.430753 -6.567450
O 9.447319 -10.761171 -6.421301
C 9.913025 -8.536731 -5.795486
C 9.678687 -7.162329 -5.912755
C 4.712004 -4.761788 -4.359769
C 4.432754 -3.920485 -3.304615
C 5.522696 -2.921849 -3.005399
C 5.524387 -1.631867 -3.566096
C 6.621138 -0.784629 -3.388427
C 7.708891 -1.220357 -2.639945
O 8.789466 -0.423635 -2.424223
C 7.732696 -2.499060 -2.093096
C 6.633505 -3.337074 -2.253572
H 9.000406 -4.593569 -4.894447
H 8.091945 -3.387015 -5.767787
H 9.254542 -4.730065 -7.404276
H 7.521415 -5.048794 -7.546954
H 7.234279 -7.246562 -8.270944
H 7.653884 -9.661111 -8.070569
H 8.997487 -11.244024 -7.134584
H 10.656430 -8.902945 -5.095924
H 10.277310 -6.483502 -5.312028
H 4.709400 -1.308782 -4.204986
H 6.622039 0.194198 -3.859364
H 8.467546 0.488584 -2.329572
H 8.599584 -2.816020 -1.522471
H 6.659617 -4.329988 -1.816307
O 3.452586 -0.788186 -0.887993
C 3.548320 -1.820800 -0.241463
O 4.642617 -2.195859 0.481886
C 5.753977 -1.287358 0.395212
C 5.636176 -0.072696 1.308788
C 6.645513 0.994382 0.925536
C 6.544524 1.640951 -0.317220
C 7.464300 2.627200 -0.688607
C 8.479513 2.981556 0.197342
O 9.375171 3.962913 -0.110421
C 8.597096 2.357718 1.428807
C 7.681056 1.362303 1.794987
C 2.491309 -2.923269 -0.274975
C 1.508082 -2.898712 0.682025
C 1.941809 -2.126123 1.917332
C 2.999898 -2.636050 2.709171
C 3.428574 -1.987454 3.868847
C 2.771068 -0.836097 4.276985
O 3.134305 -0.184952 5.414942
C 1.699733 -0.343319 3.544652
C 1.291760 -0.984424 2.369913
H 6.657202 -1.855094 0.633056
H 5.849488 -0.968405 -0.637054
H 5.785111 -0.387341 2.347656
H 4.626867 0.361147 1.276258
H 5.720093 1.405405 -0.989164
H 7.337370 3.134907 -1.636892
H 9.183449 4.285761 -1.002948
H 9.383485 2.654972 2.116238
H 7.774487 0.895377 2.772274
H 3.488461 -3.567832 2.431620
H 4.247039 -2.411611 4.439339
H 3.938417 -0.601357 5.762828
H 1.151789 0.528737 3.891598
H 0.418502 -0.610962 1.851543
O -2.054553 -1.155832 2.985730
C -2.184948 -2.344452 3.237022
O -2.241138 -2.856178 4.496708
C -1.975879 -1.889496 5.529640
C -2.152036 -2.572790 6.884894
C -1.958995 -1.704901 8.109262
C -2.137310 -0.312474 8.106247
C -1.988883 0.429974 9.283097
C -1.669014 -0.218212 10.469148
O -1.512017 0.469278 11.634751
C -1.498129 -1.595756 10.499276
C -1.646358 -2.335634 9.326157
C -2.135277 -3.420572 2.136186
C -3.418540 -3.394225 1.624509
C -4.420652 -4.106750 2.586267
C -4.003769 -4.921754 3.663574
C -4.914502 -5.526521 4.544636
C -6.268614 -5.399804 4.315490
O -7.194247 -5.985454 5.124764
C -6.720885 -4.687516 3.221151
C -5.807989 -4.055357 2.373325
H -2.638971 -1.028790 5.427288
H -0.953329 -1.508191 5.436724
H -1.441057 -3.406673 6.926974
H -3.147830 -3.032112 6.936435
H -2.397751 0.226684 7.195262
H -2.127013 1.506428 9.250177
H -1.711145 1.404731 11.465188
H -1.252611 -2.093624 11.432520
H -1.523780 -3.416030 9.367238
H -2.947155 -5.123375 3.841526
H -4.534787 -6.121111 5.368798
H -6.770160 -6.243352 5.956629
H -7.785018 -4.618922 3.022617
H -6.234535 -3.547391 1.523007
O -6.899412 0.012774 2.380561
C -6.522847 -0.705930 1.466758
O -7.381516 -1.542667 0.821812
C -8.708717 -1.655322 1.364234
C -9.613061 -0.449265 1.078543
C -10.054982 -0.349175 -0.362482
C -9.194146 0.163389 -1.335151
C -9.605217 0.285707 -2.662805
C -10.881720 -0.135716 -3.023920
O -11.303213 -0.068310 -4.319761
C -11.750616 -0.650985 -2.074108
C -11.344546 -0.758217 -0.745287
C -5.096855 -0.802196 0.892102
C -4.178604 0.198499 1.166431
C -2.807529 0.288002 0.457112
C -1.827450 1.154263 0.956712
C -0.548093 1.222991 0.393415
C -0.183276 0.412076 -0.655633
O 1.076717 0.516113 -1.149420
C -1.100973 -0.442942 -1.199180
C -2.393564 -0.460014 -0.670312
H -8.638206 -1.825213 2.443149
H -9.144540 -2.563351 0.931636
H -10.502913 -0.523974 1.716887
H -9.122329 0.489446 1.354627
H -8.185620 0.470706 -1.067781
H -8.916135 0.693506 -3.394290
H -10.562892 0.247271 -4.862143
H -12.747583 -0.968378 -2.368097
H -12.039513 -1.156649 -0.010387
H -1.996073 1.765951 1.838279
H 0.195042 1.860723 0.849399
H 1.312952 -0.327812 -1.594372
H -0.858665 -1.084234 -2.039478
H -3.033961 -1.122395 -1.217604
O -7.328786 3.414316 3.684470
C -6.182254 3.345449 4.102343
O -5.804595 3.181134 5.387799
C -6.704929 3.504089 6.473592
C -8.154572 3.006248 6.403384
C -8.811983 3.159775 7.755466
C -8.641668 2.171025 8.730591
C -9.156623 2.336669 10.016990
C -9.847342 3.500624 10.330480
O -10.367095 3.707652 11.576373
C -10.037053 4.494670 9.371953
C -9.511075 4.325900 8.089732
C -4.924813 3.558481 3.257994
C -4.401774 4.840328 3.299389
C -5.500947 5.869053 3.499868
C -6.188215 6.334807 2.367500
C -7.246943 7.242182 2.500672
C -7.610139 7.677710 3.767640
O -8.650810 8.550135 3.937164
C -6.941849 7.233712 4.907710
C -5.869010 6.347965 4.762615
H -6.227230 3.089145 7.365762
H -6.703399 4.588022 6.619725
H -8.206831 1.964959 6.069505
H -8.723947 3.579841 5.662448
H -8.080774 1.269732 8.496581
H -8.990066 1.558322 10.759209
H -10.174694 2.921298 12.115052
H -10.576899 5.402453 9.630158
H -9.643746 5.122325 7.354670
H -5.917949 5.975545 1.380972
H -7.778399 7.560793 1.612842
H -8.958078 8.820362 3.055465
H -7.231958 7.590098 5.889622
H -5.306512 6.053017 5.642845
O 0.268122 2.603987 3.004411
C 0.463787 3.809865 2.894950
O 1.535989 4.457474 3.438588
C 2.556681 3.579286 3.935121
C 3.443862 4.246502 4.993719
C 3.017477 4.105832 6.444876
C 2.532569 2.897008 6.968803
C 2.233078 2.765689 8.326871
C 2.407315 3.849748 9.175189
O 2.061024 3.783573 10.489075
C 2.899233 5.054301 8.685698
C 3.212114 5.175621 7.333761
C -0.567758 4.725219 2.230037
C -0.227448 5.170588 0.934347
C 1.244608 5.052178 0.645700
C 2.107763 6.046479 1.129939
C 3.493843 5.936150 0.998136
C 4.026501 4.821542 0.356001
O 5.371329 4.690274 0.182961
C 3.195276 3.839118 -0.153759
C 1.808061 3.955289 -0.022893
H 2.140368 2.640406 4.306759
H 3.191486 3.331776 3.075328
H 4.440474 3.779958 4.940352
H 3.575765 5.305998 4.741212
H 2.385367 2.027161 6.330134
H 1.850849 1.815004 8.696708
H 1.975513 2.844972 10.740378
H 3.045280 5.892278 9.360039
H 3.611097 6.121552 6.968917
H 1.698732 6.920299 1.628974
H 4.131407 6.714544 1.385568
H 5.808062 5.462476 0.572947
H 3.617012 2.976725 -0.667772
H 1.182022 3.188603 -0.452978
O 1.274558 7.839841 -1.129773
C 1.132290 7.174246 -2.136706
O 1.302064 7.640883 -3.411015
C 1.693026 9.016076 -3.506116
C 1.882637 9.380967 -4.983156
C 0.582988 9.408068 -5.758320
C -0.159698 10.593477 -5.878086
C -1.368899 10.601578 -6.576065
C -1.847408 9.431369 -7.146530
O -3.057964 9.469113 -7.767216
C -1.126079 8.244019 -7.046033
C 0.085371 8.238558 -6.352559
C 0.464903 5.805998 -2.231365
C 0.902122 4.941901 -3.208592
C -0.101042 4.001864 -3.816965
C -0.699383 4.350231 -5.047748
C -1.527310 3.458660 -5.729861
C -1.777333 2.213674 -5.172919
O -2.560017 1.298039 -5.811350
C -1.207435 1.856826 -3.954756
C -0.363422 2.743999 -3.282593
H 0.922273 9.647518 -3.045521
H 2.644536 9.152107 -2.980098
H 2.561253 8.666266 -5.461057
H 2.358223 10.363338 -5.055509
H 0.201476 11.516925 -5.430481
H -1.939246 11.522819 -6.665902
H -3.298339 8.562434 -8.027549
H -1.499199 7.320349 -7.479002
H 0.642324 7.305358 -6.262781
H -0.532238 5.337121 -5.469370
H -1.979085 3.755959 -6.670838
H -2.501804 1.466392 -6.773021
H -1.404429 0.871514 -3.548034
H 0.096280 2.447117 -2.351162
O 4.373045 -8.179132 -2.096366
C 4.688808 -7.423814 -3.002823
O 5.946659 -6.931560 -3.166760
C 6.877703 -7.304227 -2.137529
C 8.292453 -6.915627 -2.559331
C 9.303854 -7.023511 -1.448562
C 9.810059 -8.267526 -1.055835
C 10.699984 -8.373620 0.009489
C 11.115503 -7.224105 0.674594
O 11.973673 -7.370884 1.720463
C 10.661978 -5.972402 0.274209
C 9.760398 -5.874324 -0.781398
C 3.770321 -7.076035 -4.151774
C 3.938391 -5.911168 -4.860708
C 3.631567 -5.968612 -6.335772
C 4.229588 -6.964987 -7.148212
C 4.037420 -6.989046 -8.528824
C 3.269620 -5.998644 -9.127598
O 3.068268 -5.959219 -10.476493
C 2.695660 -4.991758 -8.357482
C 2.874839 -4.983311 -6.969681
H 6.604618 -6.786118 -1.213944
H 6.839088 -8.384979 -1.955740
H 8.608430 -7.549667 -3.392608
H 8.302281 -5.900776 -2.960142
H 9.499546 -9.171248 -1.579397
H 11.077392 -9.346989 0.319633
H 12.223391 -6.483720 2.035760
H 11.001780 -5.064371 0.768680
H 9.414904 -4.890975 -1.092208
H 4.865206 -7.726015 -6.700795
H 4.508610 -7.773643 -9.120769
H 3.375579 -6.802289 -10.853595
H 2.121604 -4.206570 -8.839107
H 2.432657 -4.173732 -6.400139
O 1.539026 -1.786992 -2.616696
C 2.258654 -2.572372 -3.209143
O 2.437962 -2.593766 -4.552958
C 1.876571 -1.505359 -5.293431
C 0.501086 -1.851870 -5.856896
C 0.293723 -1.157497 -7.186536
C 0.334920 0.240770 -7.272578
C 0.267820 0.875447 -8.509357
C 0.193745 0.111703 -9.661490
O 0.267417 0.732545 -10.872648
C 0.082065 -1.264582 -9.606363
C 0.117198 -1.898133 -8.360547
C 3.109163 -3.687495 -2.593880
C 2.858730 -3.985615 -1.283299
C 3.285285 -5.269498 -0.657085
C 2.392221 -6.339825 -0.713254
C 2.573657 -7.459590 0.101822
C 3.648936 -7.518839 0.977790
O 3.723668 -8.602157 1.792920
C 4.577023 -6.491833 1.015269
C 4.396322 -5.366653 0.192365
H 2.590663 -1.322331 -6.099287
H 1.838652 -0.584508 -4.695390
H 0.384942 -2.933062 -5.974061
H -0.283656 -1.539857 -5.157765
H 0.458495 0.842585 -6.374147
H 0.300295 1.960943 -8.563389
H 1.223958 0.854367 -11.029193
H -0.018520 -1.845643 -10.513745
H 0.046500 -2.980435 -8.320553
H 1.520854 -6.305254 -1.358385
H 1.893073 -8.299672 0.051171
H 4.637044 -8.697359 2.119137
H 5.417649 -6.529847 1.700065
H 5.106279 -4.552890 0.283661
O -0.139682 -4.089487 -1.650249
C -0.387297 -4.330418 -0.479608
O -1.014062 -5.448385 -0.012379
C -1.502541 -6.421830 -0.935281
C -1.214704 -7.854485 -0.468459
C -1.640037 -8.217582 0.937018
C -2.886507 -7.852002 1.467032
C -3.255403 -8.250481 2.757670
C -2.374303 -9.003252 3.520769
O -2.689003 -9.365875 4.795416
C -1.151208 -9.412775 3.009734
C -0.790279 -9.022980 1.722138
C 0.112810 -3.551280 0.698390
C -0.652804 -3.609585 1.835088
C 0.107857 -4.378881 2.930112
C 0.454142 -3.797542 4.158367
C 1.088915 -4.518582 5.182551
C 1.405882 -5.847270 4.966247
O 2.042967 -6.577347 5.925347
C 1.120100 -6.455108 3.761034
C 0.461708 -5.727270 2.760132
H -1.113137 -6.269146 -1.944465
H -2.576898 -6.312391 -0.959510
H -0.141710 -8.022357 -0.571434
H -1.704333 -8.555848 -1.149115
H -3.597289 -7.270576 0.881958
H -4.248930 -8.004864 3.136630
H -3.074271 -8.589570 5.242436
H -0.470993 -10.006246 3.618978
H 0.182819 -9.340600 1.336610
H 0.290559 -2.744597 4.324708
H 1.332439 -4.011762 6.106762
H 1.997472 -6.084133 6.758995
H 1.390201 -7.491348 3.582238
H 0.233506 -6.253038 1.841881
O -3.033841 -3.802775 -1.775028
C -3.815811 -3.990970 -0.859369
O -4.703987 -5.023163 -0.771097
C -4.886029 -5.740414 -2.012129
C -5.711255 -7.012155 -1.770733
C -4.973117 -8.296732 -2.071245
C -4.885165 -9.311532 -1.106894
C -4.216460 -10.509962 -1.385316
C -3.638435 -10.699459 -2.627039
O -2.985588 -11.873745 -2.865986
C -3.728513 -9.721487 -3.605832
C -4.404138 -8.524089 -3.333500
C -3.986933 -3.031363 0.265342
C -4.831629 -1.961791 -0.035526
C -5.587999 -1.893504 -1.364600
C -5.401539 -0.837652 -2.277947
C -6.098992 -0.795203 -3.489189
C -7.027395 -1.782583 -3.789241
O -7.703166 -1.691440 -4.968623
C -7.287285 -2.797218 -2.877976
C -6.585460 -2.837072 -1.671294
H -5.439830 -5.095486 -2.697953
H -3.922902 -5.960688 -2.478512
H -6.590930 -6.993608 -2.422077
H -6.088611 -7.022181 -0.736295
H -5.326930 -9.181257 -0.122356
H -4.154225 -11.288973 -0.623893
H -2.406047 -11.734309 -3.635400
H -3.294801 -9.880252 -4.589308
H -4.467996 -7.777287 -4.125725
H -4.716732 -0.020619 -2.069301
H -5.919267 0.021661 -4.183327
H -8.291700 -2.459206 -5.040343
H -8.046144 -3.549937 -3.077783
H -6.838674 -3.620240 -0.957420
O -3.767590 1.120907 4.681668
C -4.261002 0.587929 3.703901
O -4.879932 -0.615603 3.738213
C -5.384126 -1.169623 4.961301
C -6.176968 -0.188306 5.812131
C -7.064703 -0.920183 6.791316
C -8.348164 -1.325851 6.397358
C -9.163771 -2.028301 7.280714
C -8.702783 -2.316789 8.561638
O -9.544470 -2.964770 9.413521
C -7.426489 -1.938058 8.962844
C -6.597711 -1.255403 8.072890
C -4.411787 1.185862 2.314301
C -4.738687 2.518211 2.172770
C -5.433135 2.891874 0.893594
C -4.842096 3.669230 -0.093740
C -5.640516 4.201474 -1.113945
C -7.006922 3.955303 -1.185959
O -7.720185 4.518203 -2.193993
C -7.608741 3.178580 -0.223804
C -6.824413 2.665903 0.803534
H -4.595660 -1.645114 5.539416
H -6.044335 -1.984652 4.644890
H -6.786243 0.464013 5.173590
H -5.501968 0.474383 6.368342
H -8.715912 -1.081200 5.400623
H -10.160037 -2.336082 6.978548
H -9.221651 -2.821595 10.319612
H -7.055873 -2.175898 9.957202
H -5.594858 -0.965662 8.387293
H -3.787192 3.933271 -0.035254
H -5.215709 4.900542 -1.823415
H -8.654330 4.275410 -2.075254
H -8.680531 3.002656 -0.212690
H -7.345711 2.142489 1.604874
O -3.479712 7.510847 4.142158
C -2.747158 6.867357 3.401718
O -1.511332 7.339933 3.050351
C -1.198251 8.600576 3.681091
C 0.194757 9.093564 3.283817
C 1.354350 8.905101 4.250883
C 1.209425 8.975234 5.644816
C 2.329517 8.912131 6.483462
C 3.596364 8.790346 5.936203
O 4.659900 8.755939 6.788821
C 3.772470 8.723641 4.560012
C 2.654845 8.792694 3.726947
C -2.996369 5.398204 2.888432
C -1.831273 4.714382 3.116595
C -1.559833 4.592128 4.643490
C -2.301665 3.735530 5.452178
C -2.143138 3.707282 6.839960
C -1.187484 4.514035 7.436517
O -1.023993 4.442172 8.790217
C -0.416849 5.370020 6.674688
C -0.604227 5.405750 5.284323
H -1.923996 9.327889 3.311642
H -1.326239 8.519788 4.763189
H 0.462215 8.624840 2.335026
H 0.142217 10.174452 3.105531
H 0.234324 9.107672 6.108003
H 2.205294 8.980010 7.562411
H 5.484343 8.746483 6.274166
H 4.758682 8.640444 4.124529
H 2.805102 8.779529 2.648161
H -3.048308 3.099505 5.017597
H -2.761800 3.046631 7.443586
H -0.073944 4.334349 8.956119
H 0.347452 6.009323 7.122279
H 0.008764 6.106451 4.720389
O -3.349538 6.596841 0.225247
C -2.142979 6.773817 0.192545
O -1.507987 7.974473 0.322830
C -2.305143 9.165148 0.481230
C -2.507205 9.840784 -0.871851
C -2.798341 11.317542 -0.783529
C -4.109100 11.782735 -0.678388
C -4.365061 13.155555 -0.623156
C -3.302892 14.054614 -0.644032
O -3.596423 15.383691 -0.551664
C -1.995049 13.613820 -0.742064
C -1.735676 12.242407 -0.806440
C -1.093916 5.761918 -0.173243
C -0.883703 5.842836 -1.546630
C -1.999493 6.214508 -2.487912
C -2.028662 7.450967 -3.134296
C -2.964363 7.724117 -4.130672
C -3.825154 6.724557 -4.554532
O -4.664752 6.937698 -5.600303
C -3.800542 5.484261 -3.948104
C -2.916190 5.235009 -2.894258
H -1.722786 9.828642 1.123388
H -3.255110 8.961609 0.984390
H -3.312392 9.340453 -1.420727
H -1.604283 9.717784 -1.480737
H -4.943288 11.081708 -0.642825
H -5.383449 13.515803 -0.549301
H -2.795438 15.848684 -0.265948
H -1.162323 14.309096 -0.772211
H -0.707715 11.892456 -0.877377
H -1.291687 8.213866 -2.908346
H -2.966013 8.700228 -4.600890
H -5.043121 7.827933 -5.483248
H -4.463666 4.693328 -4.288945
H -2.891836 4.241641 -2.446697
O 3.582594 6.232517 -2.299706
C 3.476949 5.637828 -3.357460
O 4.477952 5.520805 -4.270075
C 5.737015 6.068497 -3.876865
C 6.698690 5.811559 -5.029223
C 8.122031 6.135926 -4.664337
C 8.955377 5.140275 -4.135719
C 10.269184 5.440564 -3.776712
C 10.750280 6.729399 -3.955133
O 12.047217 6.981553 -3.617449
C 9.939361 7.732927 -4.476485
C 8.620864 7.433980 -4.825589
C 2.251239 4.936118 -3.864388
C 2.436395 4.231301 -4.966020
C 2.727483 3.501168 -6.157659
C 2.497636 4.090099 -7.407612
C 2.815481 3.402755 -8.567516
C 3.426998 2.159547 -8.490606
O 3.768180 1.524417 -9.649686
C 3.675895 1.559771 -7.253450
C 3.320629 2.233356 -6.082372
H 5.641879 7.143035 -3.687991
H 6.079996 5.562111 -2.966700
H 6.389636 6.393278 -5.908301
H 6.626007 4.766455 -5.358121
H 8.585879 4.126321 -4.007209
H 10.919776 4.668649 -3.373778
H 12.317008 7.804824 -4.052243
H 10.308462 8.745230 -4.606027
H 7.986257 8.223645 -5.223945
H 2.043973 5.083248 -7.469969
H 2.646393 3.865673 -9.542841
H 4.611096 1.078775 -9.488637
H 4.123072 0.572223 -7.190233
H 3.496551 1.774270 -5.112664
