432
Molecule ID: homopoly_5281783
C -8.176780 8.324483 -4.594318
C -6.753187 7.873736 -4.381700
O -5.935550 9.047561 -4.450043
C -4.683961 8.985314 -4.969575
O -4.178268 9.930039 -5.582552
C -3.959027 7.764942 -4.694438
C -3.380451 6.622885 -4.359376
C -3.728486 6.216261 -2.960968
C -3.020754 6.717948 -1.860706
C -3.401168 6.375693 -0.550370
C -4.497805 5.549679 -0.316121
O -4.947548 5.116782 0.906308
C -4.069321 5.317848 1.999160
C -5.270161 5.139170 -1.410012
C -4.895322 5.493735 -2.698825
H -8.898754 7.507776 -4.422012
H -8.312228 8.676412 -5.631236
H -8.426451 9.174399 -3.945153
H -6.460096 7.165394 -5.174018
H -6.664696 7.410836 -3.395575
H -2.175314 7.386754 -1.999720
H -2.815893 6.781288 0.271401
H -4.022190 6.375408 2.274539
H -3.070775 4.915074 1.810142
H -4.483811 4.772120 2.859624
H -6.156327 4.533980 -1.256474
H -5.552152 5.212366 -3.515445
C -2.456929 1.157216 -10.425267
C -2.684690 2.590756 -9.990188
O -1.972095 2.812152 -8.771828
C -2.548787 3.666141 -7.898388
O -3.612599 4.233715 -8.097932
C -1.730985 3.812813 -6.615267
C -0.772676 2.907543 -6.237102
C -1.010140 1.404272 -6.427620
C 0.035487 0.487798 -6.239028
C -0.155993 -0.891920 -6.374536
C -1.393011 -1.391587 -6.759089
O -1.641631 -2.711779 -7.015314
C -0.558929 -3.360427 -7.686122
C -2.462372 -0.529577 -6.884260
C -2.278877 0.844993 -6.683015
H -1.387537 0.920483 -10.457707
H -2.912165 0.461671 -9.709153
H -2.903251 0.965739 -11.407968
H -3.764313 2.768150 -9.896769
H -2.274963 3.271013 -10.737103
H 1.032416 0.831501 -5.973366
H 0.669053 -1.558518 -6.163178
H 0.220191 -3.660107 -6.982218
H -0.951657 -4.257715 -8.160021
H -0.137409 -2.734466 -8.479031
H -3.446648 -0.894027 -7.162765
H -3.157381 1.461573 -6.780104
C 2.829506 7.411246 -8.896134
C 3.485506 7.193924 -7.547624
O 2.981359 6.016834 -6.923053
C 3.610594 4.851462 -7.206447
O 4.444206 4.652661 -8.074199
C 3.101159 3.804032 -6.231284
C 3.973742 3.457487 -5.219904
C 5.256207 4.259797 -5.125138
C 5.187033 5.629778 -4.796206
C 6.338844 6.380667 -4.604545
C 7.590408 5.774707 -4.697557
O 8.625823 6.634678 -4.467943
C 9.928769 6.075093 -4.484283
C 7.669369 4.404329 -4.998445
C 6.516074 3.652636 -5.210538
H 1.825381 6.988485 -8.926136
H 2.772699 8.475970 -9.133714
H 3.426403 6.926010 -9.673449
H 4.577383 7.166518 -7.656780
H 3.247018 8.032271 -6.872435
H 4.225378 6.127920 -4.700946
H 6.251743 7.438773 -4.380979
H 10.630637 6.856114 -4.185694
H 10.026407 5.254576 -3.766526
H 10.205954 5.757556 -5.491565
H 8.625132 3.906056 -5.085248
H 6.590755 2.595373 -5.459468
C 4.470746 -1.345690 -8.223081
C 3.169163 -1.193136 -7.462576
O 3.204332 -0.560228 -6.151081
C 4.227152 0.223438 -5.718790
O 5.124536 0.744606 -6.376901
C 4.175285 0.223942 -4.194863
C 4.713785 -0.922027 -3.614199
C 5.246149 -1.963783 -4.559888
C 4.440892 -3.064425 -4.890048
C 4.976571 -4.151673 -5.583248
C 6.339000 -4.187093 -5.880764
O 6.964739 -5.235341 -6.496738
C 6.625278 -6.508856 -5.963124
C 7.142845 -3.074066 -5.597717
C 6.609022 -1.978159 -4.935971
H 4.750394 -0.419807 -8.722801
H 5.283397 -1.632971 -7.563453
H 4.336453 -2.112116 -8.988473
H 2.372859 -0.716386 -8.052920
H 2.805294 -2.214948 -7.281303
H 3.376040 -3.004922 -4.665350
H 4.327214 -4.975011 -5.845737
H 6.722240 -6.525780 -4.872209
H 7.344915 -7.240432 -6.364675
H 5.629871 -6.820719 -6.296017
H 8.205392 -3.089283 -5.846948
H 7.254405 -1.145940 -4.661942
C 6.534475 -0.721511 3.773413
C 7.030402 -1.295693 2.444448
O 6.077560 -1.135372 1.397291
C 5.035968 -1.982852 1.366174
O 4.937514 -2.931781 2.123082
C 4.030561 -1.687903 0.213277
C 2.831420 -2.368827 0.307378
C 2.043463 -2.827185 -0.871984
C 2.597766 -3.748937 -1.762414
C 1.861525 -4.304615 -2.818451
C 0.522229 -3.994572 -2.974621
O -0.062162 -4.579555 -4.058429
C -1.461580 -4.385288 -4.212786
C -0.076834 -3.146296 -2.042630
C 0.675140 -2.581086 -0.998134
H 5.616100 -1.217877 4.094488
H 7.275676 -0.838077 4.560210
H 6.289886 0.335567 3.671459
H 7.939871 -0.759729 2.152803
H 7.311306 -2.350457 2.560050
H 3.601901 -4.133718 -1.633809
H 2.334515 -5.015476 -3.490340
H -2.017513 -4.839787 -3.389707
H -1.758459 -4.889532 -5.134881
H -1.699658 -3.321113 -4.328277
H -1.138693 -2.929725 -2.077055
H 0.163347 -1.982647 -0.247046
C 4.134392 -8.039254 3.596306
C 4.016598 -7.188627 2.335841
O 3.037865 -6.158782 2.489908
C 3.417573 -5.110270 3.265810
O 4.530911 -4.975374 3.756456
C 2.154945 -4.245304 3.501876
C 1.678981 -4.130219 4.784037
C 2.705418 -4.462941 5.820224
C 2.957356 -5.795847 6.226270
C 4.099797 -6.082004 6.967788
C 4.985777 -5.063095 7.315809
O 6.139967 -5.257702 8.020062
C 6.858765 -6.423120 7.628053
C 4.680627 -3.743796 6.990001
C 3.538273 -3.437140 6.247430
H 3.141669 -8.310173 3.969305
H 4.647636 -7.487242 4.384184
H 4.705033 -8.951257 3.404299
H 4.988954 -6.769473 2.038507
H 3.659822 -7.811455 1.502820
H 2.323105 -6.621800 5.889711
H 4.302165 -7.113569 7.227031
H 6.403951 -7.333398 8.042956
H 6.941926 -6.493653 6.531351
H 7.875334 -6.334936 8.018012
H 5.351238 -2.941305 7.271789
H 3.350285 -2.402431 5.936334
C 2.794644 -1.474109 9.293305
C 1.595738 -0.768039 8.710057
O 0.947700 -1.636765 7.766814
C -0.084130 -1.029679 7.110873
O -0.322016 0.164926 7.206410
C -0.834865 -2.000023 6.215504
C -2.013457 -1.554481 5.632959
C -2.822399 -2.363993 4.648158
C -2.736299 -2.041223 3.286923
C -3.691800 -2.499478 2.371436
C -4.746918 -3.296887 2.794029
O -5.646430 -3.693486 1.835684
C -6.986412 -3.831773 2.302555
C -4.824194 -3.671491 4.134744
C -3.886352 -3.195445 5.049328
H 3.572994 -1.575763 8.526508
H 2.537445 -2.482265 9.630324
H 3.231686 -0.909421 10.131569
H 1.916513 0.160320 8.222535
H 0.891573 -0.526466 9.512747
H -1.953623 -1.356571 2.929496
H -3.613649 -2.198055 1.329860
H -7.645574 -3.874259 1.434456
H -7.282657 -2.990908 2.932781
H -7.105646 -4.771682 2.858642
H -5.609229 -4.317892 4.498985
H -4.030259 -3.438611 6.093179
C -0.193122 3.395901 7.572803
C -1.418368 4.126720 7.071755
O -2.400150 3.177839 6.608735
C -3.107872 2.614144 7.614063
O -3.033833 2.907159 8.801813
C -3.993367 1.522511 7.095572
C -5.313941 1.759347 6.845822
C -5.776811 3.200338 6.784301
C -6.240858 3.724938 5.567549
C -6.585227 5.068333 5.467100
C -6.400327 5.918842 6.565787
O -6.583790 7.285726 6.554467
C -6.787990 7.869034 5.262395
C -5.994276 5.390050 7.785167
C -5.721520 4.021090 7.904366
H -0.390020 2.923051 8.533478
H 0.651369 4.084189 7.697620
H 0.091816 2.606328 6.878678
H -1.179127 4.782675 6.223494
H -1.838173 4.796088 7.843853
H -6.344970 3.110957 4.671389
H -6.986206 5.426218 4.537818
H -6.186823 7.400376 4.480443
H -6.450239 8.898745 5.324912
H -7.847382 7.878724 5.008469
H -5.880425 6.032820 8.663930
H -5.392274 3.633011 8.869618
C -0.388394 10.076912 -6.167992
C -0.282835 8.609463 -6.530452
O -1.169003 7.844301 -5.695038
C -1.627472 6.710571 -6.285191
O -1.362055 6.365202 -7.426253
C -2.502299 5.902729 -5.339327
C -2.502177 4.538158 -5.534255
C -3.540660 3.676267 -4.879518
C -3.200755 2.735729 -3.895015
C -4.153282 1.810191 -3.471424
C -5.440255 1.793920 -4.004081
O -6.259878 0.807261 -3.533131
C -7.430828 0.562134 -4.296579
C -5.792594 2.745786 -4.971973
C -4.839373 3.661614 -5.411600
H 0.202059 10.688102 -6.855898
H -1.428298 10.407567 -6.204458
H -0.044007 10.249722 -5.137297
H 0.730043 8.254599 -6.331402
H -0.498407 8.497566 -7.596492
H -2.190292 2.694956 -3.503392
H -3.872401 1.059461 -2.736606
H -7.197977 0.350057 -5.344145
H -7.920165 -0.324219 -3.887063
H -8.135406 1.397451 -4.210990
H -6.780719 2.789479 -5.405717
H -5.118131 4.379403 -6.194050
C -0.559627 4.406887 -1.238797
C -0.091063 4.977050 -2.557407
O 0.131948 3.926022 -3.505131
C 0.611154 4.430725 -4.690649
O 0.843197 5.612138 -4.907478
C 0.576825 3.411701 -5.794588
C 1.712476 3.345613 -6.563258
C 1.488833 3.090729 -8.041322
C 0.852470 4.074099 -8.827629
C 0.765036 3.956685 -10.208851
C 1.314146 2.853758 -10.865912
O 1.193856 2.887657 -12.228834
C 1.542236 1.720808 -12.951118
C 1.981384 1.881429 -10.108224
C 2.091596 2.022408 -8.716001
H -0.758820 5.201155 -0.513365
H 0.215234 3.756295 -0.815096
H -1.458860 3.804606 -1.378815
H 0.809817 5.562126 -2.369521
H -0.838090 5.653583 -2.949683
H 0.448090 4.971084 -8.350753
H 0.275050 4.746208 -10.777393
H 0.789456 0.944234 -12.808075
H 2.541440 1.352936 -12.711637
H 1.551553 1.986239 -14.011659
H 2.465539 1.036139 -10.565618
H 2.694864 1.323701 -8.157259
C 3.823749 5.100770 -0.143108
C 4.832036 4.859752 -1.255247
O 4.550925 3.661014 -1.997258
C 3.506957 3.795709 -2.872533
O 2.799704 4.795547 -2.944454
C 3.590718 2.734613 -3.951781
C 3.565109 1.427275 -3.538160
C 2.451315 1.172696 -2.530079
C 2.383257 1.662091 -1.209076
C 1.300954 1.414231 -0.373972
C 0.199199 0.735426 -0.883551
O -0.833252 0.424049 -0.061244
C -1.980304 1.239466 -0.302794
C 0.222885 0.261135 -2.186792
C 1.363394 0.416487 -2.981229
H 3.637236 4.197316 0.436641
H 4.179813 5.881601 0.523678
H 2.857140 5.434094 -0.551268
H 4.882770 5.727848 -1.918987
H 5.832976 4.739627 -0.831302
H 3.197519 2.244101 -0.792893
H 1.313633 1.766031 0.651931
H -2.030194 1.598116 -1.333052
H -1.959498 2.101710 0.369281
H -2.885245 0.662329 -0.068278
H -0.621086 -0.303619 -2.576296
H 1.373324 -0.061190 -3.952023
C 6.881841 -5.432539 -1.790827
C 6.676597 -4.325887 -0.768482
O 5.610500 -3.469485 -1.213284
C 5.993805 -2.350259 -1.873545
O 7.149492 -2.062564 -2.160290
C 4.784481 -1.425077 -2.150253
C 4.539895 -0.812207 -0.965921
C 5.311152 0.479177 -0.685367
C 5.076916 1.196380 0.494390
C 5.993053 2.152772 0.950975
C 7.139808 2.450910 0.201614
O 8.004632 3.342558 0.770268
C 9.292949 3.457344 0.169276
C 7.307351 1.856309 -1.043842
C 6.418592 0.879017 -1.471654
H 5.923646 -5.715080 -2.225322
H 7.519351 -5.061955 -2.607650
H 7.364851 -6.297756 -1.339007
H 7.607749 -3.757099 -0.567911
H 6.391207 -4.750757 0.203760
H 4.234929 0.940708 1.143692
H 5.840371 2.621392 1.916655
H 9.966867 3.888192 0.914553
H 9.245079 4.145128 -0.678274
H 9.716256 2.493327 -0.134778
H 8.149007 2.093222 -1.698711
H 6.674640 0.395406 -2.405115
C 1.930945 0.428487 4.881657
C 2.845075 0.286648 3.686304
O 2.952400 -1.067919 3.260911
C 1.931424 -1.487247 2.466719
O 0.911382 -0.868303 2.235582
C 2.310297 -2.730009 1.687903
C 1.584659 -3.761044 2.212409
C 0.629180 -4.624509 1.465829
C -0.723536 -4.456326 1.784563
C -1.727692 -5.239102 1.208531
C -1.406885 -6.229634 0.289909
O -2.294807 -7.051508 -0.335974
C -3.635403 -6.977599 0.117144
C -0.064047 -6.414042 -0.050808
C 0.945640 -5.627614 0.540023
H 2.147998 -0.375161 5.601284
H 2.070088 1.387625 5.378595
H 0.882016 0.361726 4.584639
H 2.516724 0.948177 2.887076
H 3.849126 0.621415 3.980291
H -1.000501 -3.706833 2.514070
H -2.751631 -5.040502 1.519869
H -3.720400 -7.224509 1.179047
H -4.217442 -7.715005 -0.433441
H -4.081841 -6.001036 -0.086649
H 0.213292 -7.163919 -0.777159
H 1.981076 -5.817485 0.256536
C -2.550695 -7.726744 5.551971
C -2.366436 -6.650493 4.494063
O -1.729217 -5.506049 5.053290
C -0.364180 -5.521601 4.935319
O 0.291267 -6.499080 4.599262
C 0.188294 -4.105638 5.149679
C -0.374881 -3.439310 6.218226
C -0.601747 -4.199274 7.524322
C 0.474397 -4.663475 8.296484
C 0.280804 -5.406429 9.451451
C -0.997024 -5.697264 9.888845
O -1.296077 -6.438962 10.996349
C -0.365999 -7.492515 11.247885
C -2.088302 -5.159115 9.204649
C -1.887028 -4.437575 8.024434
H -1.575286 -8.099716 5.897683
H -3.130376 -8.565378 5.157423
H -3.060772 -7.320262 6.425857
H -1.804661 -7.029157 3.635145
H -3.328945 -6.317613 4.118943
H 1.494346 -4.438242 8.008303
H 1.165032 -5.750661 9.995122
H -0.138583 -8.054604 10.335333
H -0.832945 -8.177368 11.964486
H 0.551230 -7.112890 11.710394
H -3.094044 -5.299159 9.574661
H -2.757363 -4.084696 7.491225
C -0.501189 3.385217 3.695695
C -1.657134 2.404198 3.572526
O -1.556538 1.382626 4.563737
C -2.719387 0.709832 4.719186
O -3.706842 0.812820 4.009440
C -2.647559 -0.225637 5.894991
C -3.331943 0.183378 7.009846
C -3.330402 -0.627799 8.257329
C -2.553352 -0.221260 9.346984
C -2.656608 -0.865300 10.583878
C -3.549307 -1.924822 10.743185
O -3.786981 -2.605561 11.908974
C -3.187649 -2.040373 13.074974
C -4.312803 -2.351428 9.649728
C -4.197062 -1.707652 8.415924
H -0.233476 3.587718 4.728469
H -0.742044 4.321626 3.196047
H 0.394932 2.963218 3.226841
H -1.640238 1.946883 2.580799
H -2.594483 2.950078 3.683619
H -1.874221 0.627151 9.271439
H -2.040056 -0.499555 11.397969
H -2.097261 -2.102191 13.026943
H -3.522377 -1.010509 13.235014
H -3.518629 -2.631495 13.935351
H -5.017896 -3.164123 9.768209
H -4.841494 -2.011612 7.596715
C -8.030153 -2.623799 8.030399
C -7.873418 -1.421620 8.939639
O -6.871956 -0.545091 8.384915
C -7.361103 0.347408 7.485624
O -8.539222 0.669723 7.359441
C -6.273582 0.689254 6.505405
C -6.679433 0.504741 5.273569
C -7.336929 0.364810 4.014868
C -8.699193 0.645913 3.926637
C -9.361896 0.545068 2.703189
C -8.642989 0.180012 1.549881
O -9.369479 0.166799 0.393100
C -8.596863 0.160509 -0.807590
C -7.288227 -0.136584 1.656279
C -6.627110 -0.035262 2.881807
H -8.922362 -3.209183 8.286529
H -8.090344 -2.332188 6.977276
H -7.162899 -3.287200 8.128663
H -8.839470 -0.907883 9.085542
H -7.529141 -1.740002 9.928860
H -9.260310 0.957131 4.814386
H -10.415336 0.780560 2.635257
H -9.279364 0.336684 -1.640525
H -8.127285 -0.818669 -0.961868
H -7.852133 0.963923 -0.813439
H -6.696892 -0.455356 0.801704
H -5.574293 -0.262200 2.946676
