592
Molecule ID: homopoly_16541
C 5.682818 -8.507563 7.666499
C 4.232457 -8.050947 7.698238
C 3.880320 -7.386198 9.029458
C 2.425498 -6.911965 9.050262
C 2.098961 -6.170951 10.348832
C 0.629618 -5.749669 10.379712
C 0.206645 -5.056663 11.678641
C 0.844205 -3.680684 11.863619
C 0.389183 -2.966942 13.144431
C -1.097781 -2.611132 13.190364
O -1.416713 -1.829327 12.036700
C -2.705321 -1.404862 11.974777
O -3.582751 -1.590905 12.800856
C -2.935095 -0.662840 10.762634
C -2.993599 -0.034283 9.622994
H 5.909023 -8.975052 6.702614
H 6.366984 -7.663834 7.803598
H 5.881061 -9.242190 8.454129
H 3.579940 -8.915507 7.532242
H 4.060554 -7.350932 6.873924
H 4.044767 -8.094778 9.850408
H 4.545818 -6.532258 9.206332
H 2.241806 -6.249189 8.194792
H 1.760476 -7.777824 8.934553
H 2.313555 -6.819559 11.204593
H 2.748927 -5.293713 10.428937
H 0.415348 -5.093622 9.525829
H 0.005166 -6.646311 10.255045
H -0.883372 -4.954081 11.653367
H 0.445174 -5.698809 12.533017
H 0.632211 -3.054956 10.989740
H 1.933861 -3.785907 11.911818
H 0.966498 -2.036591 13.219000
H 0.644633 -3.574135 14.020610
H -1.714065 -3.515680 13.208004
H -1.300416 -2.027391 14.097501
H -2.041261 0.255660 9.187562
C 0.967179 -4.911490 2.013120
C 0.474695 -6.340647 2.188797
C -0.584038 -6.762639 1.164603
C -1.830159 -5.876181 1.095893
C -2.644008 -5.844014 2.393857
C -3.770892 -4.819512 2.278151
C -4.650608 -4.736841 3.531303
C -5.370097 -3.388862 3.554217
C -6.372379 -3.223394 4.690628
C -7.051847 -1.851257 4.607742
O -6.111922 -0.790599 4.863718
C -6.014736 -0.442148 6.173095
O -6.596860 -1.009611 7.085471
C -4.977575 0.615431 6.396916
C -4.688554 1.644767 5.571151
H 1.314817 -4.736723 0.989322
H 1.804562 -4.717078 2.692048
H 0.181519 -4.185921 2.243264
H 0.093887 -6.471818 3.207484
H 1.331750 -7.018440 2.090076
H -0.120823 -6.776485 0.169266
H -0.888622 -7.794112 1.378929
H -1.540898 -4.859359 0.806337
H -2.472141 -6.250518 0.288287
H -2.002501 -5.566992 3.235237
H -3.053648 -6.838391 2.602237
H -4.403159 -5.068857 1.416996
H -3.324692 -3.839213 2.069808
H -4.048639 -4.848229 4.438552
H -5.373348 -5.559958 3.525241
H -5.903448 -3.264500 2.610607
H -4.624296 -2.589864 3.608771
H -5.853457 -3.336137 5.648952
H -7.135411 -4.006614 4.623328
H -7.908096 -1.800565 5.292734
H -7.458770 -1.686673 3.604376
H -3.851093 2.278897 5.882703
C 2.424100 15.343549 0.776355
C 1.535228 14.340521 0.056449
C 0.885346 13.360593 1.035727
C -0.028476 12.376117 0.301599
C -0.619152 11.328573 1.250323
C -1.672951 10.477552 0.539072
C -2.191322 9.339003 1.424179
C -3.414592 8.679889 0.784230
C -3.942259 7.468929 1.553460
C -3.010475 6.258063 1.494220
O -3.720170 5.130789 2.028681
C -3.292010 3.924286 1.579862
O -2.285476 3.697230 0.927681
C -4.293924 2.891102 1.985713
C -4.961400 2.240926 1.014500
H 1.837722 15.966218 1.460331
H 3.204044 14.835577 1.353094
H 2.913029 16.002493 0.050767
H 0.761284 14.880954 -0.503076
H 2.136617 13.787357 -0.675492
H 1.663977 12.808928 1.576500
H 0.301605 13.914814 1.781284
H 0.541544 11.862531 -0.484825
H -0.834458 12.932011 -0.195099
H 0.186247 10.687460 1.627833
H -1.074598 11.825444 2.115786
H -1.247090 10.051253 -0.379303
H -2.505884 11.124155 0.233419
H -1.388362 8.606401 1.562999
H -2.459459 9.721944 2.415388
H -3.188634 8.386313 -0.247854
H -4.221502 9.422775 0.725148
H -4.154462 7.731145 2.595690
H -4.908773 7.181153 1.120368
H -2.716731 6.071904 0.453498
H -2.115125 6.426520 2.102678
H -5.685336 1.474981 1.285797
C -4.737668 -10.265504 -2.361303
C -6.225193 -10.521538 -2.169765
C -6.869074 -9.612042 -1.121467
C -6.817478 -8.124494 -1.482464
C -7.468326 -7.278628 -0.385828
C -7.327294 -5.775877 -0.651707
C -7.818002 -4.976586 0.556573
C -7.832682 -3.460673 0.360779
C -6.490141 -2.860808 -0.060729
C -6.386425 -1.404152 0.376101
O -5.240349 -0.794736 -0.223597
C -4.126603 -0.620033 0.537085
O -3.912616 -1.070925 1.651397
C -3.190528 0.228566 -0.267997
C -2.016555 -0.387074 -0.517050
H -4.206251 -10.289316 -1.404540
H -4.557514 -9.295799 -2.834374
H -4.303466 -11.031869 -3.010621
H -6.359587 -11.563196 -1.852024
H -6.742118 -10.414214 -3.130248
H -6.375834 -9.773616 -0.154637
H -7.915343 -9.916901 -0.994737
H -7.329217 -7.954166 -2.436584
H -5.778439 -7.804336 -1.606764
H -8.531605 -7.537354 -0.305131
H -7.004141 -7.520470 0.578515
H -7.900415 -5.501072 -1.544806
H -6.275859 -5.538505 -0.849261
H -7.191659 -5.217567 1.425523
H -8.835595 -5.295055 0.813136
H -8.163958 -3.010461 1.306357
H -8.590121 -3.194903 -0.388093
H -6.370990 -2.933789 -1.149235
H -5.648444 -3.416761 0.363701
H -7.259691 -0.841234 0.026368
H -6.363624 -1.305789 1.466172
H -1.770012 -1.312182 0.007306
C 5.891435 -4.243192 7.227884
C 5.145098 -3.125333 7.942928
C 5.727491 -1.737486 7.663095
C 5.613363 -1.321310 6.195437
C 6.247342 0.052323 5.949771
C 6.350223 0.375526 4.459255
C 5.022280 0.821196 3.839222
C 5.088261 0.766674 2.311447
C 4.710382 -0.611030 1.754079
C 3.203591 -0.824163 1.587924
O 2.648260 0.121091 0.656156
C 1.318064 -0.041990 0.415343
O 0.627710 -0.937380 0.881758
C 0.820549 0.964596 -0.586392
C 1.202036 2.259886 -0.581456
H 5.543070 -5.217107 7.580428
H 5.723066 -4.211391 6.146568
H 6.969045 -4.184149 7.414338
H 5.191095 -3.310841 9.022428
H 4.086668 -3.154617 7.659955
H 6.780603 -1.720760 7.971375
H 5.201733 -1.003920 8.286590
H 4.559152 -1.309053 5.899063
H 6.118143 -2.058905 5.561663
H 7.262501 0.053994 6.368447
H 5.684308 0.833776 6.474055
H 6.758604 -0.492128 3.927294
H 7.078837 1.186740 4.327570
H 4.183697 0.221755 4.204016
H 4.830899 1.854580 4.152097
H 4.436837 1.527446 1.877445
H 6.102078 1.024562 1.983772
H 5.192171 -0.718327 0.778606
H 5.118059 -1.404778 2.390284
H 2.699863 -0.718201 2.553384
H 3.034635 -1.838292 1.204743
H 0.854184 2.898674 -1.393606
C 5.404197 4.361664 -11.027253
C 5.018786 5.767540 -10.590637
C 5.103493 5.927840 -9.072494
C 4.756607 7.353133 -8.641326
C 4.800451 7.509504 -7.117829
C 4.475646 8.948924 -6.710990
C 4.533595 9.197889 -5.201566
C 3.492233 8.400343 -4.415215
C 3.376301 8.901348 -2.970007
C 2.449412 8.020674 -2.137913
O 3.098227 6.759413 -1.941458
C 2.311045 5.768813 -1.455236
O 1.119842 5.856339 -1.193008
C 3.141384 4.538018 -1.203765
C 4.023874 4.214195 -2.166343
H 5.309665 4.266420 -12.113725
H 6.440640 4.138428 -10.755500
H 4.755180 3.613378 -10.561167
H 3.996732 5.980799 -10.929035
H 5.680949 6.490918 -11.081941
H 6.113537 5.674599 -8.729382
H 4.414160 5.221802 -8.599129
H 5.461298 8.054697 -9.105533
H 3.754687 7.611521 -9.006828
H 4.080983 6.816756 -6.668360
H 5.794946 7.234323 -6.747002
H 3.480342 9.219849 -7.085563
H 5.190464 9.625161 -7.196439
H 4.376379 10.270003 -5.030238
H 5.536363 8.962378 -4.825887
H 3.765120 7.338186 -4.421675
H 2.514307 8.487743 -4.902358
H 2.994284 9.928397 -2.973925
H 4.374171 8.915914 -2.514575
H 1.486494 7.893644 -2.643894
H 2.286150 8.481939 -1.158149
H 4.029360 4.856965 -3.051829
C -2.944138 7.044780 -3.512748
C -1.504707 7.215015 -3.967224
C -1.087477 6.127497 -4.960510
C 0.371625 6.307862 -5.375590
C 0.888307 5.239290 -6.342907
C 0.884602 3.831428 -5.738213
C 1.726467 2.823382 -6.527983
C 3.231593 3.065420 -6.382352
C 4.058894 1.927380 -6.990265
C 5.559097 2.217536 -6.974853
O 5.964803 2.614564 -5.657596
C 6.789994 1.787632 -4.964544
O 7.276787 0.746830 -5.383407
C 7.025099 2.358202 -3.582188
C 8.084743 1.851130 -2.921343
H -3.634333 7.149754 -4.352948
H -3.198971 7.808477 -2.772963
H -3.095684 6.064678 -3.052257
H -0.851342 7.182704 -3.086927
H -1.386036 8.204583 -4.424158
H -1.235438 5.145413 -4.498053
H -1.730719 6.169222 -5.847771
H 0.489839 7.288634 -5.852322
H 1.007492 6.312638 -4.482646
H 0.291899 5.246084 -7.265144
H 1.905688 5.523628 -6.629509
H -0.148524 3.462573 -5.707313
H 1.237839 3.862191 -4.700608
H 1.443419 2.844783 -7.586912
H 1.492423 1.822881 -6.152736
H 3.477120 3.162717 -5.317978
H 3.505978 4.009385 -6.861838
H 3.739410 1.732666 -8.020595
H 3.869349 1.018046 -6.411542
H 5.785912 3.050126 -7.648858
H 6.114315 1.346369 -7.340172
H 8.643140 1.075330 -3.444060
C 8.953863 -8.770200 -0.056448
C 10.132775 -8.414979 0.834626
C 10.450465 -6.918310 0.858915
C 10.991589 -6.393471 -0.474699
C 11.369178 -4.913144 -0.376170
C 12.109458 -4.384659 -1.609292
C 11.265493 -4.366275 -2.885392
C 12.063188 -3.968228 -4.132333
C 12.724763 -2.585592 -4.123477
C 11.755064 -1.417347 -4.283490
O 10.964376 -1.253745 -3.098441
C 10.979685 -0.028974 -2.511853
O 11.650460 0.928555 -2.872972
C 10.002796 0.046165 -1.372392
C 9.612784 -1.084866 -0.746245
H 9.160942 -8.549594 -1.107759
H 8.056891 -8.220738 0.245619
H 8.734578 -9.840155 0.019381
H 11.016157 -8.979122 0.515893
H 9.903757 -8.737712 1.858207
H 9.556347 -6.353886 1.148822
H 11.200219 -6.741918 1.641434
H 10.234778 -6.525458 -1.255319
H 11.870665 -6.980164 -0.765267
H 10.468152 -4.315276 -0.197256
H 12.020922 -4.768336 0.495493
H 13.012622 -4.985658 -1.770093
H 12.444557 -3.367019 -1.379989
H 10.400675 -3.708190 -2.759517
H 10.859346 -5.367306 -3.070232
H 12.852463 -4.716703 -4.281239
H 11.405909 -4.045621 -5.007468
H 13.327712 -2.453753 -3.219155
H 13.422474 -2.552723 -4.970867
H 12.328812 -0.514917 -4.524812
H 11.068342 -1.598521 -5.117572
H 9.991702 -2.036922 -1.116604
C -13.322506 -4.760605 9.164903
C -13.107041 -4.511331 7.677786
C -11.638683 -4.303425 7.297386
C -10.747114 -5.504722 7.618354
C -9.297930 -5.315444 7.160050
C -8.527085 -4.189443 7.861213
C -8.374593 -4.404441 9.371769
C -7.408875 -3.409250 10.025696
C -7.965804 -1.983047 10.106343
C -7.012362 -1.032988 10.829753
O -5.764395 -0.943343 10.131109
C -5.544614 0.194862 9.427378
O -6.299092 1.150183 9.310681
C -4.188100 0.143712 8.809382
C -4.021874 0.401237 7.492097
H -12.767729 -4.039728 9.772990
H -13.004235 -5.770007 9.441844
H -14.385442 -4.672876 9.411010
H -13.666656 -3.612132 7.387509
H -13.532533 -5.345362 7.103117
H -11.268232 -3.407762 7.806267
H -11.590747 -4.098682 6.220962
H -11.154321 -6.391251 7.112986
H -10.766378 -5.725898 8.691120
H -9.285290 -5.126495 6.081372
H -8.758845 -6.256932 7.314719
H -7.525956 -4.140318 7.412406
H -9.003463 -3.223397 7.659665
H -9.350129 -4.341964 9.867642
H -7.989580 -5.415954 9.545098
H -6.453387 -3.416148 9.485045
H -7.194789 -3.761044 11.043700
H -8.924992 -2.000058 10.639452
H -8.157202 -1.603000 9.098220
H -7.485069 -0.053759 10.960918
H -6.792779 -1.413582 11.833807
H -2.995206 0.430107 7.128500
C -13.431069 1.823239 -4.836083
C -13.024428 0.437963 -4.357446
C -11.530738 0.144373 -4.522371
C -10.584738 1.062226 -3.742149
C -10.789505 1.004793 -2.226249
C -9.745590 1.846607 -1.487063
C -9.972707 1.790678 0.024825
C -8.955104 2.648793 0.781211
C -9.255706 2.657726 2.283841
C -8.341588 3.603271 3.062246
O -6.983761 3.143530 3.109096
C -6.699075 2.253593 4.097504
O -7.530396 1.726026 4.821276
C -5.219572 2.092509 4.274512
C -4.277025 2.448368 3.374279
H -14.515731 1.948165 -4.743753
H -12.957119 2.610036 -4.241947
H -13.163715 1.970093 -5.887514
H -13.325913 0.309114 -3.312461
H -13.588276 -0.306451 -4.934460
H -11.273241 0.204374 -5.587464
H -11.347230 -0.893908 -4.220091
H -9.555240 0.760805 -3.973518
H -10.686859 2.094850 -4.092273
H -11.790038 1.368871 -1.968772
H -10.726225 -0.036846 -1.887620
H -9.806080 2.887626 -1.829663
H -8.739072 1.482999 -1.723863
H -10.987770 2.138566 0.253379
H -9.901455 0.752111 0.370235
H -7.946941 2.260077 0.603226
H -8.981548 3.675302 0.394719
H -9.162931 1.637296 2.669611
H -10.292795 2.975767 2.438949
H -8.724961 3.753772 4.081391
H -8.328614 4.592061 2.588935
H -3.233691 2.344386 3.687425
C -2.556813 6.127830 -13.528224
C -1.364959 5.975524 -12.595652
C -1.604945 4.981665 -11.457574
C -2.667366 5.444406 -10.455623
C -2.761895 4.475636 -9.275846
C -3.805853 4.922402 -8.250572
C -3.861619 3.939550 -7.080488
C -4.816659 4.402772 -5.975187
C -4.736071 3.445724 -4.789893
C -5.532258 3.901926 -3.571834
O -5.249756 2.934443 -2.550212
C -5.168431 3.376066 -1.270218
O -5.498680 4.477908 -0.863219
C -4.627823 2.282988 -0.409455
C -3.737190 1.404376 -0.947262
H -2.875512 5.157694 -13.922938
H -3.406750 6.592176 -13.017675
H -2.290845 6.769220 -14.374499
H -0.504876 5.629551 -13.182839
H -1.096839 6.955380 -12.185230
H -0.653060 4.832543 -10.929683
H -1.889719 4.006907 -11.873610
H -3.645645 5.512826 -10.945633
H -2.413507 6.446493 -10.087506
H -1.782364 4.400513 -8.788931
H -3.013708 3.472812 -9.643094
H -3.549968 5.923137 -7.880302
H -4.792535 4.990961 -8.723941
H -2.854291 3.821037 -6.661916
H -4.173602 2.953220 -7.444848
H -5.841927 4.445822 -6.358304
H -4.542754 5.413112 -5.655891
H -5.080943 2.448586 -5.094985
H -3.688099 3.312782 -4.493408
H -6.606375 3.889085 -3.777599
H -5.228223 4.908633 -3.265855
H -3.399956 1.543832 -1.975184
C 1.467450 -6.747893 -5.907223
C 0.089124 -6.123523 -6.053094
C -1.005613 -7.184113 -6.162185
C -2.409611 -6.576845 -6.272265
C -2.894751 -5.986393 -4.946713
C -4.293538 -5.370665 -5.025089
C -4.376613 -4.110442 -5.906245
C -5.104176 -2.951044 -5.213216
C -4.220649 -1.967432 -4.431418
C -2.990439 -2.566770 -3.760418
O -2.530035 -1.725850 -2.701326
C -1.657670 -0.727006 -2.992064
O -1.285101 -0.388159 -4.101169
C -1.180369 -0.143020 -1.683336
C 0.018218 0.472974 -1.707125
H 1.715663 -7.365706 -6.777924
H 1.528224 -7.370766 -5.010178
H 2.221992 -5.958850 -5.827757
H -0.085570 -5.468857 -5.192923
H 0.076195 -5.496025 -6.949175
H -0.821936 -7.792740 -7.054560
H -0.962196 -7.863076 -5.301952
H -3.106951 -7.367785 -6.580150
H -2.421034 -5.817185 -7.062612
H -2.191028 -5.232407 -4.584115
H -2.910378 -6.784001 -4.191271
H -4.994438 -6.123836 -5.411356
H -4.624257 -5.154545 -4.004558
H -4.955552 -4.380488 -6.800529
H -3.394149 -3.783184 -6.253539
H -5.879087 -3.349180 -4.546693
H -5.644267 -2.369863 -5.973798
H -4.841157 -1.454832 -3.686630
H -3.881474 -1.177743 -5.114875
H -2.190271 -2.754189 -4.482332
H -3.243763 -3.512405 -3.274211
H 0.521945 0.590591 -2.670202
C -2.606088 -6.428019 8.207342
C -2.239412 -5.025802 7.747884
C -1.398746 -5.066530 6.471728
C -0.885394 -3.694237 6.022073
C -2.003968 -2.682715 5.774150
C -1.542484 -1.418644 5.047371
C -0.487775 -0.627815 5.822399
C -0.370333 0.824741 5.353597
C 0.048055 0.959607 3.893690
C 0.109723 2.419528 3.471577
O 0.512745 2.490328 2.100880
C 1.814419 2.801473 1.874085
O 2.660908 2.987723 2.732171
C 2.034431 2.956150 0.396768
C 2.933913 3.913352 0.088195
H -3.195157 -6.383748 9.128771
H -1.710408 -7.025631 8.404743
H -3.200358 -6.944656 7.447031
H -3.163324 -4.462803 7.575593
H -1.689558 -4.513159 8.544598
H -1.988282 -5.517472 5.664600
H -0.531491 -5.720867 6.625229
H -0.192860 -3.303801 6.777844
H -0.304930 -3.831794 5.100369
H -2.468636 -2.396821 6.724752
H -2.786209 -3.148367 5.169789
H -2.424516 -0.790591 4.872471
H -1.151073 -1.693105 4.060368
H 0.487515 -1.120655 5.732644
H -0.739509 -0.620229 6.889912
H 0.364820 1.334762 5.988916
H -1.327087 1.336316 5.511390
H -0.650214 0.435761 3.230855
H 1.024731 0.485892 3.740146
H 0.763441 3.005943 4.126618
H -0.884101 2.872628 3.530989
H 3.465916 4.419384 0.896066
C -2.478561 -0.929632 -9.957085
C -1.711952 -2.240976 -10.060250
C -1.161538 -2.736943 -8.721875
C -0.145224 -1.778741 -8.100304
C 0.446904 -2.347279 -6.809350
C 1.412613 -1.349571 -6.174367
C 1.934003 -1.841188 -4.826016
C 2.962860 -0.861226 -4.259476
C 3.354733 -1.231555 -2.832049
C 4.476522 -0.358610 -2.285504
O 4.163777 1.035784 -2.419826
C 4.936582 1.841233 -1.641455
O 5.630160 1.493461 -0.695770
C 5.035992 3.177468 -2.271825
C 6.080435 3.361858 -3.111580
H -2.939951 -0.688790 -10.919137
H -1.815376 -0.099219 -9.693469
H -3.271675 -0.992943 -9.205127
H -0.892292 -2.125590 -10.779868
H -2.382394 -3.008543 -10.464959
H -0.686783 -3.713848 -8.882139
H -1.989252 -2.900077 -8.022768
H -0.627846 -0.819776 -7.875968
H 0.661308 -1.577921 -8.815771
H 0.978386 -3.280611 -7.027391
H -0.359657 -2.586792 -6.106475
H 2.250982 -1.168037 -6.857786
H 0.897601 -0.392974 -6.029154
H 1.096718 -1.948483 -4.128497
H 2.390152 -2.832571 -4.936267
H 2.551953 0.154731 -4.275369
H 3.854395 -0.864246 -4.897054
H 2.475068 -1.134169 -2.187377
H 3.669013 -2.281221 -2.786174
H 4.642871 -0.630853 -1.243758
H 5.398084 -0.552381 -2.846595
H 6.182821 4.306794 -3.642790
C 10.809550 9.441771 4.606791
C 9.708747 10.309318 4.017708
C 8.402136 10.316072 4.816233
C 7.477346 9.115652 4.581595
C 7.837047 7.883176 5.410105
C 6.776737 6.775847 5.353110
C 6.485174 6.184237 3.968364
C 7.735860 5.708402 3.229700
C 7.393909 4.797402 2.047971
C 8.632163 4.529951 1.200124
O 8.434135 3.358978 0.399881
C 8.436834 3.508004 -0.955297
O 8.347116 4.567912 -1.555774
C 8.656734 2.173066 -1.609008
C 9.545410 1.370791 -0.975553
H 11.761467 9.659028 4.108447
H 10.609325 8.378362 4.460635
H 10.941368 9.636166 5.674793
H 10.087272 11.340269 3.984237
H 9.522496 10.015941 2.977774
H 7.847594 11.209817 4.500893
H 8.605958 10.447422 5.885626
H 6.460565 9.423930 4.856228
H 7.449814 8.872409 3.513807
H 8.798730 7.470988 5.095082
H 7.957397 8.179676 6.459315
H 7.100659 5.963170 6.016414
H 5.837549 7.156016 5.773986
H 5.959322 6.921595 3.350861
H 5.795413 5.341511 4.101888
H 8.304450 6.576882 2.873882
H 8.388585 5.158370 3.920836
H 6.618346 5.248954 1.418742
H 6.978703 3.852610 2.416732
H 8.898575 5.411402 0.604100
H 9.490222 4.309675 1.845765
H 10.026397 1.707490 -0.056136
C 6.227313 -4.691121 -9.053758
C 5.687716 -6.111840 -8.995884
C 6.488930 -7.039483 -8.076371
C 6.623834 -6.584334 -6.619477
C 5.282467 -6.478724 -5.889082
C 5.407732 -5.890649 -4.479483
C 6.178888 -6.784955 -3.507179
C 6.222263 -6.215026 -2.084899
C 7.043548 -4.930748 -1.987940
C 7.117443 -4.402954 -0.560814
O 7.872553 -3.185537 -0.604304
C 7.937813 -2.514004 0.576234
O 7.423184 -2.877487 1.622813
C 8.722485 -1.251408 0.396762
C 8.730494 -0.403158 1.392984
H 7.288504 -4.684582 -9.322523
H 6.107853 -4.178528 -8.095151
H 5.682512 -4.114075 -9.807202
H 5.706260 -6.534962 -10.007779
H 4.634299 -6.091477 -8.693899
H 6.028551 -8.035277 -8.099688
H 7.498116 -7.156558 -8.492458
H 7.152204 -5.625907 -6.574512
H 7.260232 -7.311986 -6.102825
H 4.608427 -5.824615 -6.455333
H 4.805458 -7.465574 -5.841700
H 4.396237 -5.723742 -4.086897
H 5.880775 -4.905957 -4.556734
H 5.698168 -7.770515 -3.471173
H 7.203991 -6.942395 -3.858203
H 5.202330 -6.032534 -1.725968
H 6.658964 -6.971046 -1.422519
H 6.613638 -4.146472 -2.623441
H 8.059538 -5.102513 -2.367154
H 6.109375 -4.203790 -0.181374
H 7.623455 -5.125138 0.089907
H 8.691665 0.272103 2.212158
