400
Molecule ID: homopoly_5317238
C -5.971574 -2.333862 -0.305308
C -5.974806 -0.924716 0.266075
O -5.834899 -1.034155 1.692324
C -6.859422 -0.544072 2.425424
O -7.912736 -0.076402 2.009795
C -6.761286 -1.017426 3.779675
C -6.847037 -1.924476 4.724493
C -7.353042 -3.230726 4.148584
C -6.591019 -3.804940 3.109228
C -7.035977 -4.930687 2.406295
C -8.253567 -5.501871 2.745404
O -8.729814 -6.599609 2.097221
C -9.021215 -4.945728 3.768181
O -10.210993 -5.512862 4.116816
C -8.587699 -3.810295 4.460267
H -4.963592 -2.754682 -0.235327
H -6.300712 -2.349957 -1.347777
H -6.625684 -2.994576 0.283535
H -5.114244 -0.376386 -0.107004
H -6.871399 -0.383001 -0.039303
H -5.617259 -3.381757 2.827531
H -6.441856 -5.293447 1.572534
H -7.997996 -6.986414 1.582739
H -10.386911 -6.198210 3.441029
H -9.257100 -3.389264 5.208583
C -5.814881 -5.837585 6.070524
C -4.579233 -5.229669 5.410190
O -4.601447 -3.785380 5.422188
C -4.416998 -3.232832 6.642143
O -4.477641 -3.819613 7.707190
C -4.365449 -1.709170 6.494217
C -3.122863 -1.191085 6.278095
C -2.115386 -2.293002 6.124389
C -1.542738 -2.893841 7.278612
C -0.720969 -4.007122 7.152402
C -0.421869 -4.503806 5.896440
O 0.389234 -5.600165 5.804990
C -0.966936 -3.906117 4.747497
O -0.654320 -4.444127 3.525555
C -1.801868 -2.806026 4.855141
H -6.681008 -5.172151 6.004045
H -6.055605 -6.818151 5.635868
H -5.631425 -6.005332 7.143341
H -3.646805 -5.611011 5.849417
H -4.568052 -5.509246 4.352636
H -1.772191 -2.521280 8.276664
H -0.284953 -4.470197 8.033925
H 0.639198 -5.623560 4.866045
H -1.122610 -3.931999 2.837094
H -2.262404 -2.359229 3.980114
C -0.506771 3.695094 9.308868
C -0.488194 4.627293 8.110126
O -0.684155 3.876158 6.891814
C -1.977944 3.590145 6.617785
O -2.955403 4.005518 7.231265
C -2.072735 2.600729 5.469165
C -1.514003 2.956381 4.257219
C -1.630975 1.974143 3.156219
C -2.538941 2.174009 2.101624
C -2.766492 1.163973 1.168697
C -2.093194 -0.037780 1.272527
O -2.386174 -1.050788 0.406886
C -1.116378 -0.211023 2.245695
O -0.441505 -1.402957 2.281276
C -0.884207 0.790055 3.182145
H -1.478497 3.201866 9.402692
H -0.308468 4.256594 10.231390
H 0.259063 2.918644 9.209482
H 0.500358 5.103919 8.041272
H -1.225645 5.426377 8.207922
H -3.111957 3.089283 2.038847
H -3.511584 1.308838 0.384011
H -1.783550 -1.789879 0.641232
H 0.233919 -1.348678 2.983857
H -0.127696 0.662910 3.940421
C -1.218975 5.098718 -1.716167
C -1.078871 3.990287 -0.675611
O -0.404324 4.498495 0.485553
C 0.312312 3.589123 1.180535
O 0.472230 2.411114 0.897826
C 0.898868 4.247948 2.401577
C 2.270035 4.376427 2.346866
C 3.017206 5.111282 3.405558
C 3.280068 6.482374 3.280391
C 4.057577 7.174605 4.221436
C 4.573261 6.485586 5.296059
O 5.329846 7.092572 6.254093
C 4.317423 5.117682 5.438133
O 4.842439 4.438572 6.499523
C 3.538507 4.434146 4.515101
H -0.426472 5.005485 -2.466781
H -1.165818 6.093046 -1.264764
H -2.180286 4.994812 -2.223140
H -0.545301 3.134627 -1.119484
H -2.044263 3.612275 -0.369807
H 2.861130 7.042472 2.451074
H 4.225936 8.236440 4.090305
H 5.410262 8.037530 6.051738
H 5.364431 5.094673 7.002286
H 3.354068 3.377651 4.666616
C 2.311612 -0.723678 -0.334152
C 2.758079 -0.132506 -1.647257
O 3.650486 0.948474 -1.370055
C 3.093772 2.179618 -1.431413
O 1.958470 2.464405 -1.756849
C 4.063344 3.211147 -0.981197
C 5.266969 3.285421 -1.642052
C 6.250548 4.246597 -1.049715
C 6.613820 5.418082 -1.730902
C 7.649838 6.228471 -1.228615
C 8.319458 5.843272 -0.070533
O 9.347310 6.567187 0.446476
C 7.975645 4.677518 0.587693
O 8.660816 4.276366 1.698276
C 6.948734 3.883778 0.106428
H 1.725067 0.014781 0.226768
H 3.174264 -0.981439 0.278245
H 1.699688 -1.613594 -0.494635
H 3.303532 -0.870838 -2.242740
H 1.909559 0.212697 -2.226001
H 6.126394 5.689811 -2.652750
H 7.916895 7.109124 -1.800648
H 9.548585 7.283868 -0.188564
H 9.429414 4.873825 1.776098
H 6.696075 2.955629 0.626058
C 1.756618 6.124212 -5.045203
C 3.114222 5.569357 -4.645530
O 3.011137 4.162864 -4.380670
C 4.094086 3.465258 -4.769239
O 5.146831 3.996241 -5.143539
C 4.036185 1.986440 -4.474994
C 3.047395 1.266531 -5.129451
C 1.898749 2.056900 -5.639724
C 1.908088 2.669373 -6.910654
C 0.787329 3.345451 -7.393469
C -0.343881 3.447203 -6.587974
O -1.468279 4.106273 -7.009339
C -0.349069 2.875110 -5.316495
O -1.443903 3.012885 -4.505441
C 0.745853 2.185129 -4.853939
H 1.468413 5.740617 -6.028105
H 0.984991 5.827487 -4.325592
H 1.806395 7.215250 -5.116553
H 3.475886 6.059351 -3.729777
H 3.810088 5.794732 -5.459638
H 2.791971 2.581614 -7.546727
H 0.810833 3.759704 -8.395726
H -1.234266 4.615890 -7.807292
H -2.106762 3.496549 -5.027948
H 0.722467 1.754939 -3.851242
C -1.254199 0.252796 -2.347330
C -0.701553 -1.160254 -2.350840
O 0.426246 -1.204064 -3.257138
C 0.820931 -2.444405 -3.626799
O 0.364542 -3.456596 -3.109491
C 1.882003 -2.389290 -4.722968
C 2.682330 -3.511526 -4.825512
C 3.912437 -3.634362 -5.650846
C 5.144941 -3.644963 -4.996927
C 6.318885 -4.060507 -5.622924
C 6.273950 -4.432831 -6.947734
O 7.389112 -4.849030 -7.617746
C 5.063749 -4.416965 -7.629365
O 5.025278 -4.813496 -8.936399
C 3.890579 -4.029497 -6.989889
H -2.194922 0.308120 -1.793733
H -1.430676 0.600486 -3.369437
H -0.535954 0.931655 -1.878625
H -0.375518 -1.445829 -1.350054
H -1.492001 -1.844026 -2.685289
H 5.201113 -3.365391 -3.948409
H 7.245951 -4.086057 -5.065072
H 8.122260 -5.003426 -6.989840
H 5.954612 -4.973931 -9.175275
H 2.972986 -4.053536 -7.556730
C 3.189446 -9.064308 -7.555146
C 3.567789 -7.604404 -7.561332
O 2.828947 -6.888842 -6.544219
C 1.631560 -6.362021 -6.910136
O 1.202020 -6.416211 -8.062504
C 0.912262 -5.752908 -5.716643
C -0.394267 -5.360990 -5.869662
C -0.932800 -4.821234 -7.156815
C -0.171832 -3.962982 -7.960935
C -0.648506 -3.478144 -9.189140
C -1.949305 -3.789371 -9.576864
O -2.390249 -3.317334 -10.773449
C -2.751059 -4.556279 -8.747432
O -4.047515 -4.759688 -9.136846
C -2.254054 -5.095453 -7.545428
H 3.426755 -9.535774 -6.597067
H 2.115892 -9.178960 -7.727231
H 3.723480 -9.593287 -8.350229
H 3.383960 -7.190324 -8.554686
H 4.628182 -7.478653 -7.343766
H 0.832896 -3.674577 -7.673171
H -0.016890 -2.867561 -9.811835
H -3.342118 -3.508956 -10.841639
H -4.405763 -5.485150 -8.581849
H -2.916031 -5.721893 -6.967173
C -8.505488 -3.627016 9.961980
C -8.945152 -3.276969 8.550518
O -7.818394 -2.718146 7.855365
C -8.064209 -1.779694 6.909620
O -9.165753 -1.325242 6.600619
C -6.809397 -1.519272 6.154579
C -5.701385 -1.152747 6.889261
C -5.882970 -0.683348 8.317909
C -5.048091 -1.155522 9.351582
C -5.236606 -0.755026 10.695856
C -6.243108 0.129945 10.995524
O -6.393397 0.545180 12.288981
C -7.080465 0.612298 10.000171
O -8.067122 1.487330 10.386936
C -6.892714 0.220415 8.677059
H -8.252085 -2.716098 10.519749
H -7.600534 -4.252086 9.950710
H -9.297268 -4.160248 10.503498
H -9.790247 -2.580642 8.588103
H -9.251889 -4.183973 8.017293
H -4.270287 -1.874616 9.166887
H -4.593698 -1.146869 11.474918
H -7.211127 1.084976 12.300593
H -8.424718 1.923957 9.586877
H -7.588034 0.624891 7.932827
C 1.951910 -1.491087 6.339968
C 1.130008 -0.248444 6.638407
O -0.210117 -0.425218 6.134128
C -1.139178 0.330151 6.768245
O -0.836173 1.193001 7.603490
C -2.529436 0.190201 6.205132
C -2.977614 1.390154 5.734683
C -4.421055 1.656398 5.524100
C -5.170905 2.181332 6.593696
C -6.453615 2.692929 6.396338
C -6.994951 2.714921 5.131255
O -8.229685 3.235427 4.880365
C -6.249416 2.227724 4.057561
O -6.723904 2.349409 2.783687
C -4.986723 1.669921 4.263165
H 1.879492 -1.771718 5.282780
H 1.585367 -2.338789 6.931805
H 3.002134 -1.326481 6.600671
H 1.141036 -0.069748 7.719767
H 1.563381 0.622762 6.134977
H -4.732884 2.232775 7.594541
H -6.991156 3.116148 7.245553
H -8.527376 3.726526 5.670325
H -7.689684 2.461801 2.852900
H -4.460215 1.270307 3.410303
C -5.053802 6.458612 3.412944
C -4.586416 5.612456 4.586523
O -3.465208 4.816798 4.196442
C -2.242993 5.387857 4.407338
O -2.111390 6.537352 4.811611
C -1.133677 4.400810 3.983759
C -0.051986 4.945353 3.317559
C 0.116503 6.426365 3.412933
C -0.168981 7.268243 2.328812
C -0.042818 8.658675 2.457265
C 0.337771 9.202950 3.686659
O 0.451085 10.551229 3.828637
C 0.581742 8.383224 4.782704
O 0.843172 8.913659 6.005275
C 0.516968 6.998332 4.641985
H -4.252935 7.127567 3.076873
H -5.310953 5.815042 2.568894
H -5.924795 7.051718 3.695913
H -5.387549 4.934429 4.892191
H -4.363904 6.237678 5.458046
H -0.479247 6.862002 1.374693
H -0.260028 9.298593 1.619111
H 1.369628 10.720507 4.113271
H 0.536152 9.840606 5.990858
H 0.734641 6.375565 5.491897
C 4.361039 0.482794 4.063242
C 3.084017 0.462880 3.238185
O 2.737175 1.764582 2.767485
C 3.483907 2.225914 1.727813
O 4.412645 1.598807 1.227992
C 3.085180 3.625221 1.329649
C 3.556734 4.104498 0.126205
C 3.472613 5.567111 -0.131275
C 2.489622 6.105856 -0.959730
C 2.486221 7.468509 -1.280766
C 3.472204 8.309370 -0.749991
O 3.516045 9.635996 -1.083239
C 4.442906 7.788538 0.090067
O 5.403412 8.604104 0.631579
C 4.443121 6.427478 0.403561
H 4.306318 1.242967 4.846672
H 5.231515 0.707150 3.432589
H 4.518225 -0.492738 4.529261
H 2.251614 0.136974 3.873369
H 3.138750 -0.257266 2.413326
H 1.734607 5.450811 -1.395728
H 1.726621 7.855731 -1.953369
H 2.878899 9.832162 -1.786027
H 6.192988 8.070970 0.823904
H 5.212343 6.039078 1.067980
C 10.154385 0.828436 -2.467580
C 9.339673 1.772081 -1.617084
O 7.927537 1.578371 -1.820227
C 7.348006 2.400884 -2.739272
O 7.937558 3.172023 -3.489917
C 5.821000 2.323493 -2.664656
C 5.290468 1.592738 -3.714609
C 6.231994 0.537561 -4.203282
C 6.421888 -0.639233 -3.440521
C 7.487646 -1.489727 -3.728233
C 8.324956 -1.216093 -4.803552
O 9.323544 -2.086170 -5.120106
C 8.140027 -0.064650 -5.562904
O 9.012163 0.264087 -6.556903
C 7.092188 0.799734 -5.272883
H 10.096465 1.101868 -3.533561
H 9.789167 -0.199538 -2.346095
H 11.217831 0.862385 -2.187926
H 9.546505 1.561167 -0.556719
H 9.628200 2.812955 -1.779277
H 5.790028 -0.846791 -2.587791
H 7.645940 -2.377159 -3.124015
H 9.200530 -2.270634 -6.075765
H 9.897951 -0.028274 -6.268618
H 6.981604 1.725403 -5.834638
C 4.088958 -0.218076 -9.749041
C 4.198407 -1.421112 -8.823317
O 3.412336 -1.263322 -7.623881
C 3.920672 -0.453259 -6.648267
O 4.994651 0.084195 -6.779216
C 3.009346 -0.248250 -5.424661
C 1.909898 -1.084749 -5.518419
C 0.651333 -0.761232 -6.370256
C -0.668047 -1.113672 -5.977382
C -1.798771 -0.854416 -6.766783
C -1.651154 -0.270608 -8.008462
O -2.710335 -0.009127 -8.827355
C -0.372341 0.048113 -8.453083
O -0.205698 0.567475 -9.707903
C 0.741941 -0.181768 -7.637929
H 4.588286 -0.439299 -10.695834
H 3.045342 0.030274 -9.958206
H 4.566318 0.668679 -9.306187
H 3.783797 -2.299089 -9.354623
H 5.246524 -1.637852 -8.573634
H -0.898832 -1.583055 -5.048419
H -2.772242 -1.139166 -6.390611
H -3.530707 -0.143500 -8.319941
H -1.066597 0.466146 -10.154650
H 1.686614 0.135906 -8.056848
C 3.198850 -4.359411 0.253957
C 4.064569 -3.786756 -0.867726
O 3.318932 -3.722789 -2.092578
C 3.217178 -4.905950 -2.751242
O 3.712378 -5.959590 -2.371573
C 2.415090 -4.745184 -4.023932
C 1.577910 -5.776132 -4.394925
C 1.343801 -6.925766 -3.457851
C 0.650911 -6.708309 -2.254638
C 0.420670 -7.771322 -1.355192
C 0.923727 -9.024815 -1.665143
O 0.815591 -10.089732 -0.810156
C 1.624225 -9.238470 -2.862154
O 2.226050 -10.422168 -3.099824
C 1.840804 -8.194908 -3.753531
H 3.039521 -5.439884 0.117909
H 2.218272 -3.875457 0.264815
H 3.701192 -4.199556 1.220402
H 4.988977 -4.362660 -0.988511
H 4.362245 -2.763157 -0.622571
H 0.255733 -5.725449 -2.011095
H -0.123450 -7.576109 -0.443378
H 0.788876 -9.762723 0.117311
H 1.974123 -10.977387 -2.333111
H 2.397285 -8.407849 -4.667930
C -1.848022 -9.703778 -7.069343
C -0.858266 -9.443452 -5.951762
O -0.726755 -8.028702 -5.776428
C -1.547225 -7.429579 -4.877595
O -2.361768 -7.999050 -4.163843
C -1.332681 -5.931413 -4.873542
C -2.189218 -5.257380 -4.154349
C -3.323012 -5.104619 -3.317944
C -4.566748 -4.769956 -3.866721
C -5.730879 -4.915501 -3.106770
C -5.655723 -5.402257 -1.798543
O -6.786028 -5.587088 -1.061781
C -4.412126 -5.713895 -1.241958
O -4.317276 -6.195033 0.038959
C -3.247281 -5.574007 -1.993201
H -1.429961 -9.375717 -8.030991
H -2.068589 -10.777089 -7.133713
H -2.776162 -9.139001 -6.913869
H -1.094310 -9.948494 -5.007813
H 0.124056 -9.832613 -6.239397
H -4.639083 -4.465898 -4.904433
H -6.699051 -4.682353 -3.553373
H -7.569244 -5.289480 -1.569775
H -3.973017 -7.115142 -0.055740
H -2.295891 -5.868979 -1.579408
