688
Molecule ID: homopoly_6479915
C -9.857782 -0.589739 9.624753
O -8.872554 0.342157 10.040241
C -8.428409 0.196145 11.328525
O -8.851704 -0.628505 12.135793
C -7.336455 1.246095 11.595745
C -7.160751 1.537467 13.097435
C -6.031574 0.758045 13.746723
C -4.754265 1.352198 13.833984
C -3.676574 0.611958 14.309608
C -3.860138 -0.709841 14.686872
O -2.786073 -1.397234 15.179606
C -5.123003 -1.302475 14.612889
O -5.281261 -2.589793 15.055426
C -6.214726 -0.574268 14.143645
O -6.118493 0.769833 11.026827
C -5.820604 1.240523 9.803596
O -6.534955 1.874881 9.048628
C -4.482491 0.880368 9.448582
C -3.248539 0.812727 9.001178
C -2.586574 2.127538 9.101426
C -2.367116 2.689725 10.372010
C -2.010306 4.024042 10.480438
C -1.864983 4.785847 9.323288
O -1.538124 6.114038 9.449864
C -2.060785 4.221580 8.056555
O -1.845961 4.995740 6.948776
C -2.432601 2.895134 7.941917
H -9.404719 -1.566164 9.401379
H -10.653951 -0.684972 10.371409
H -10.301437 -0.199664 8.698386
H -7.679819 2.186210 11.124694
H -8.096605 1.401272 13.667201
H -6.938696 2.607417 13.223203
H -4.595622 2.381526 13.507617
H -2.696438 1.066075 14.381671
H -3.102269 -2.317123 15.285720
H -6.095068 -2.555914 15.590180
H -7.189104 -1.038227 14.048312
H -2.506667 2.082174 11.269954
H -1.857516 4.478247 11.451467
H -1.389885 6.391204 8.532612
H -1.909937 4.406857 6.167561
H -2.645600 2.476553 6.965338
C -4.932591 -2.906322 2.181190
O -3.640756 -3.218539 2.716466
C -3.581820 -3.279821 4.066596
O -4.434641 -2.834626 4.832582
C -2.341267 -4.042611 4.526185
C -2.834369 -5.306940 5.295029
C -3.882741 -6.190261 4.633802
C -4.740122 -6.941284 5.462643
C -5.852226 -7.587494 4.918970
C -6.147240 -7.438523 3.571884
O -7.293021 -7.971624 3.064796
C -5.288028 -6.726530 2.744513
O -5.629689 -6.544001 1.431668
C -4.111680 -6.177993 3.246690
O -1.556196 -3.023453 5.217761
C -1.528874 -2.982490 6.559101
O -1.854872 -3.886506 7.309887
C -1.040659 -1.691594 7.108380
C 0.256924 -1.286012 6.862753
C 0.905501 -0.372146 7.880933
C 0.403968 0.916153 8.148867
C 0.968793 1.728308 9.137268
C 2.025633 1.254780 9.895254
O 2.634945 2.003854 10.861538
C 2.554860 -0.006436 9.631208
O 3.597024 -0.486825 10.356479
C 2.011900 -0.799947 8.627694
H -5.734445 -3.395356 2.745925
H -4.980336 -3.279450 1.153541
H -5.080445 -1.826776 2.172943
H -1.727570 -4.364016 3.672789
H -1.967932 -5.905182 5.588474
H -3.335394 -4.969112 6.213251
H -4.544816 -7.000104 6.537627
H -6.518512 -8.139973 5.570627
H -7.364793 -7.554038 2.180866
H -4.800799 -6.268333 0.981450
H -3.443458 -5.668234 2.569749
H -0.436479 1.285911 7.577698
H 0.525760 2.708579 9.337527
H 2.265746 2.903218 10.775056
H 3.642925 0.126300 11.121515
H 2.437554 -1.785925 8.490932
C 5.589831 -5.402912 -0.202838
O 5.380148 -5.121266 1.187486
C 4.082705 -5.146958 1.598248
O 3.126132 -5.309866 0.847122
C 3.926333 -4.821808 3.088608
C 5.196119 -5.076313 3.929904
C 5.944191 -6.371142 3.709452
C 5.320406 -7.613159 3.943258
C 6.036005 -8.791578 3.750518
C 7.361233 -8.738358 3.329465
O 8.063437 -9.901769 3.207341
C 7.981476 -7.523916 3.074890
O 9.285951 -7.537186 2.662450
C 7.278751 -6.340769 3.262696
O 3.426901 -3.451815 3.029134
C 3.561819 -2.622488 4.083868
O 4.142622 -2.869025 5.135425
C 2.933812 -1.264802 3.844583
C 3.710723 -0.475052 2.984962
C 4.756103 -1.161474 2.114005
C 4.563603 -1.154777 0.731630
C 5.507452 -1.701209 -0.126504
C 6.696881 -2.191452 0.406333
O 7.668609 -2.623090 -0.477787
C 6.925707 -2.204930 1.763271
O 8.097767 -2.702944 2.262386
C 5.963573 -1.688301 2.638973
H 6.657631 -5.285228 -0.413509
H 5.319100 -6.436364 -0.431288
H 5.029606 -4.694716 -0.817553
H 3.116714 -5.462073 3.456308
H 4.940089 -5.042150 5.001781
H 5.890724 -4.237551 3.799733
H 4.287446 -7.664715 4.282971
H 5.567719 -9.751820 3.955806
H 8.969684 -9.621848 3.021391
H 9.461072 -6.669971 2.238973
H 7.748161 -5.385410 3.045541
H 3.679440 -0.676966 0.316166
H 5.341555 -1.714790 -1.191454
H 8.471648 -2.591007 0.084455
H 7.893184 -3.104217 3.120973
H 6.171503 -1.686700 3.698171
C 9.400085 -1.366056 5.706601
O 8.769714 -0.179955 5.225775
C 9.458761 0.937184 5.599179
O 10.336580 0.915014 6.460862
C 9.123347 2.152686 4.668201
C 9.440197 3.556263 5.240431
C 9.682088 3.713037 6.723559
C 8.617889 3.597596 7.622424
C 8.831383 3.648771 9.004642
C 10.126046 3.830133 9.483554
O 10.407489 3.848245 10.821450
C 11.186653 3.959264 8.590480
O 12.464536 4.094368 9.059768
C 10.985086 3.908696 7.217244
O 7.815940 2.215075 4.045698
C 7.621161 1.388914 2.983152
O 8.429585 0.552253 2.606490
C 6.287907 1.686797 2.275402
C 6.305029 2.572284 1.193501
C 7.112202 3.821660 1.544721
C 6.414678 4.960422 1.951467
C 7.089730 6.118278 2.344155
C 8.472059 6.147872 2.324148
O 9.110502 7.302792 2.654041
C 9.200811 5.012708 1.989483
O 10.563310 5.081334 2.085638
C 8.525310 3.853323 1.617213
H 10.476006 -1.348775 5.495413
H 9.218175 -1.474802 6.778252
H 8.981192 -2.229832 5.185263
H 9.824548 2.033270 3.851723
H 8.645583 4.264770 4.964850
H 10.322371 3.925039 4.703000
H 7.612696 3.453679 7.248727
H 7.973255 3.557237 9.664292
H 9.563326 3.685537 11.280539
H 12.364027 4.036124 10.020615
H 11.835449 3.977918 6.541369
H 5.333761 4.938394 1.996182
H 6.541068 6.995668 2.655523
H 10.061735 7.077852 2.588540
H 10.938108 4.204021 1.894991
H 9.087136 2.940613 1.461181
C 10.165263 -1.428621 -3.427229
O 8.742833 -1.618638 -3.450605
C 8.008158 -0.470325 -3.486134
O 8.468718 0.650704 -3.394481
C 6.520774 -0.769887 -3.748815
C 6.313787 -0.663620 -5.278961
C 7.176632 -1.521410 -6.189611
C 7.468675 -2.870362 -5.917488
C 8.263144 -3.613157 -6.785103
C 8.754856 -3.018638 -7.945619
O 9.539093 -3.757586 -8.784515
C 8.461021 -1.693106 -8.247887
O 8.964748 -1.170948 -9.406249
C 7.677915 -0.938673 -7.378918
O 5.627386 0.072137 -2.905350
C 4.950178 1.153392 -3.355375
O 4.997414 1.600052 -4.526666
C 4.524446 2.122974 -2.245538
C 3.404283 2.893566 -2.612043
C 3.746059 4.373446 -2.608623
C 3.227006 5.246789 -1.660201
C 3.558407 6.600642 -1.697364
C 4.423668 7.074911 -2.678268
O 4.784384 8.389177 -2.671820
C 4.916516 6.232132 -3.666012
O 5.786754 6.742820 -4.587679
C 4.540964 4.893973 -3.667495
H 10.477810 -0.539555 -3.984161
H 10.486475 -1.364857 -2.385092
H 10.636001 -2.294653 -3.903561
H 6.302953 -1.788975 -3.393730
H 6.505759 0.369855 -5.574514
H 5.264800 -0.874875 -5.487203
H 7.096309 -3.357164 -5.014349
H 8.493250 -4.653083 -6.577666
H 9.745108 -3.146494 -9.517263
H 8.496741 -0.329213 -9.561159
H 7.457107 0.103428 -7.594613
H 2.542749 4.859140 -0.916367
H 3.149818 7.294227 -0.969657
H 5.388784 8.462641 -3.437915
H 6.250433 6.000635 -5.010347
H 4.891710 4.233028 -4.457240
C -4.617858 3.073604 1.451628
O -3.198516 3.033281 1.464320
C -2.597279 3.163687 0.243949
O -3.169412 3.241066 -0.832566
C -1.066761 3.294983 0.460825
C -0.717785 4.764095 0.815965
C -1.838134 5.699619 1.251110
C -2.193859 5.799602 2.606099
C -3.324194 6.529308 3.004263
C -4.077246 7.183031 2.033554
O -5.259951 7.807550 2.347055
C -3.696459 7.148388 0.689895
O -4.525502 7.694414 -0.257165
C -2.593776 6.404094 0.291813
O -0.187414 2.869225 -0.613485
C -0.446015 1.590660 -1.018316
O -1.331357 0.926441 -0.494628
C 0.376184 1.127006 -2.255350
C 0.117505 -0.195642 -2.616661
C 0.214046 -1.175969 -1.473365
C 1.510679 -1.615932 -1.127850
C 1.676249 -2.641648 -0.199346
C 0.559054 -3.216923 0.387504
O 0.653611 -4.337514 1.169748
C -0.714032 -2.733946 0.098839
O -1.807939 -3.341491 0.629235
C -0.903941 -1.731156 -0.837215
H -4.964274 4.001962 0.994011
H -5.010984 2.195033 0.938892
H -4.974077 3.055107 2.492142
H -0.810126 2.670511 1.329515
H -0.143049 5.255607 0.014616
H -0.037371 4.693914 1.670629
H -1.627182 5.267841 3.379270
H -3.606631 6.559145 4.062607
H -5.522524 7.444480 3.209536
H -5.404096 7.646396 0.174039
H -2.354380 6.306254 -0.776305
H 2.386654 -1.186633 -1.620787
H 2.675850 -3.029031 -0.012304
H 1.531578 -4.735886 0.970839
H -1.423029 -4.114698 1.085987
H -1.904490 -1.400808 -1.080865
C -4.639696 -8.259046 -0.959058
O -3.673711 -7.480488 -1.673961
C -3.063464 -6.492465 -0.973139
O -3.479249 -6.036757 0.097339
C -1.798422 -5.967319 -1.655847
C -1.117162 -7.053376 -2.521225
C -0.508348 -8.164177 -1.682089
C -1.167463 -9.403588 -1.556220
C -0.585967 -10.441806 -0.819718
C 0.658574 -10.239903 -0.220262
O 1.312152 -11.276279 0.396731
C 1.296554 -9.003984 -0.310934
O 2.538571 -8.832628 0.231465
C 0.715376 -7.960471 -1.022845
O -2.168474 -4.792431 -2.424358
C -1.165336 -4.023688 -2.906545
O 0.009997 -4.217773 -2.624703
C -1.626177 -2.861152 -3.847449
C -2.894239 -2.927749 -4.453418
C -3.548686 -4.306127 -4.536362
C -2.976490 -5.271288 -5.398652
C -3.580586 -6.518616 -5.592143
C -4.762152 -6.803486 -4.914595
O -5.440400 -7.974006 -5.128513
C -5.316753 -5.867111 -4.038119
O -6.502881 -6.133269 -3.406024
C -4.715229 -4.636189 -3.833376
H -5.615926 -7.761284 -0.964803
H -4.729715 -9.241710 -1.440932
H -4.314195 -8.438739 0.075207
H -1.123838 -5.644738 -0.857814
H -0.327678 -6.618038 -3.148990
H -1.823456 -7.469021 -3.247020
H -2.129120 -9.568453 -2.033817
H -1.097473 -11.394041 -0.750770
H 0.843736 -12.094432 0.155933
H 2.790205 -9.724183 0.531482
H 1.244210 -7.010822 -1.102121
H -2.044865 -5.059321 -5.933544
H -3.120570 -7.214953 -6.290947
H -4.934642 -8.488455 -5.783289
H -6.718829 -7.032075 -3.712622
H -5.126926 -3.971319 -3.087520
C -10.063211 3.808584 -3.274714
O -8.888199 2.994309 -3.334743
C -7.724911 3.688706 -3.540318
O -7.656474 4.869473 -3.864235
C -6.500301 2.816488 -3.185575
C -6.623650 2.324432 -1.734411
C -7.154011 3.367143 -0.765882
C -8.079118 2.985762 0.209207
C -8.672021 3.942347 1.033569
C -8.357360 5.285774 0.863054
O -9.000329 6.211261 1.631523
C -7.438369 5.684695 -0.099547
O -7.228862 7.023230 -0.298739
C -6.792972 4.728122 -0.877160
O -6.419466 1.712423 -4.101014
C -5.176837 1.269792 -4.378828
O -4.190069 1.477117 -3.669866
C -5.146258 0.268686 -5.543186
C -5.685336 0.702352 -6.731781
C -6.518135 1.963451 -6.737955
C -5.941770 3.178414 -7.125455
C -6.728130 4.316080 -7.220308
C -8.096385 4.236687 -6.953179
O -8.847969 5.373959 -7.015574
C -8.688163 3.036739 -6.565254
O -10.021941 2.991965 -6.247998
C -7.905253 1.904094 -6.439136
H -10.087611 4.546481 -4.079812
H -10.130678 4.301119 -2.300133
H -10.924787 3.144598 -3.388428
H -5.611452 3.451032 -3.301107
H -5.659189 1.943584 -1.379076
H -7.288631 1.445628 -1.744487
H -8.377859 1.941336 0.303172
H -9.407223 3.648990 1.779823
H -8.669113 7.067148 1.294271
H -7.008363 7.101071 -1.249129
H -6.056735 5.046201 -1.611129
H -4.882198 3.216845 -7.382974
H -6.270990 5.253209 -7.527276
H -8.448185 5.967250 -6.356938
H -10.149335 2.238150 -5.653029
H -8.331914 0.962540 -6.099101
C -6.959614 3.948762 5.448376
O -6.834904 2.520294 5.435766
C -5.556078 2.052046 5.526826
O -4.566599 2.771888 5.510797
C -5.547446 0.530547 5.627065
C -5.992534 -0.065178 4.287596
C -7.480546 -0.118738 4.008879
C -7.925266 0.042316 2.679726
C -9.277335 -0.091784 2.352655
C -10.195230 -0.387999 3.353128
O -11.523748 -0.596814 3.084236
C -9.769109 -0.555850 4.670319
O -10.656845 -0.901956 5.647631
C -8.431676 -0.421861 4.998065
O -4.179272 0.079680 5.958456
C -4.113335 -0.651399 7.111066
O -5.093166 -1.036821 7.739609
C -2.884566 -0.208251 7.942998
C -1.918091 -1.136890 8.197852
C -1.946664 -1.801143 9.557332
C -3.099546 -2.522639 9.931876
C -3.194960 -3.169516 11.170417
C -2.115178 -3.128424 12.043642
O -2.134133 -3.770986 13.247610
C -0.975568 -2.417319 11.686925
O 0.103329 -2.372867 12.525529
C -0.885155 -1.753310 10.467188
H -6.690607 4.352105 4.476103
H -8.001244 4.204591 5.651264
H -6.337629 4.394040 6.229581
H -6.238789 0.259551 6.429625
H -5.469958 0.457300 3.473615
H -5.649832 -1.087965 4.227351
H -7.204914 0.243900 1.887345
H -9.576414 0.001396 1.313956
H -11.643632 -0.473893 2.128285
H -11.500413 -1.022251 5.175838
H -8.139366 -0.589682 6.031135
H -3.957378 -2.596231 9.256414
H -4.112092 -3.702174 11.404145
H -2.993456 -4.221135 13.310650
H -0.202560 -2.839031 13.325412
H 0.017304 -1.201816 10.258916
C 4.470850 -4.268486 10.067009
O 3.321948 -4.238569 9.224972
C 3.326623 -5.140349 8.212338
O 4.213640 -5.955273 7.992368
C 2.049264 -5.035708 7.374292
C 0.854881 -5.639080 8.117254
C 1.024726 -7.068064 8.596791
C 1.163159 -7.334722 9.966683
C 1.293192 -8.648277 10.434299
C 1.296513 -9.687871 9.514577
O 1.454929 -10.968276 9.976707
C 1.184899 -9.442421 8.148547
O 1.231440 -10.518665 7.302105
C 1.038522 -8.136092 7.682532
O 1.780394 -3.633680 7.104992
C 1.438340 -3.275208 5.852898
O 1.292210 -4.047444 4.910266
C 1.182175 -1.802952 5.762603
C 1.773415 -0.973513 4.798738
C 0.897139 0.198798 4.546657
C 1.074968 1.433945 5.173399
C 0.071746 2.396758 5.082053
C -1.070117 2.148230 4.328423
O -2.019479 3.125032 4.294235
C -1.227911 0.941183 3.653675
O -2.348059 0.711736 2.914625
C -0.245732 -0.033629 3.754650
H 5.401934 -4.352634 9.490423
H 4.385971 -5.103418 10.775402
H 4.507514 -3.326685 10.626006
H 2.243780 -5.579062 6.439585
H -0.027694 -5.612818 7.468967
H 0.587437 -4.992287 8.960726
H 1.196659 -6.510273 10.683035
H 1.396069 -8.837811 11.495962
H 1.730797 -11.464751 9.183873
H 1.327294 -10.178033 6.397896
H 0.935329 -7.942113 6.617438
H 1.945307 1.635427 5.790951
H 0.189982 3.339834 5.607486
H -2.741194 2.781046 3.723832
H -2.239487 -0.155848 2.479273
H -0.368912 -0.997957 3.267913
C 4.296765 6.566792 5.440398
O 3.979972 5.867898 4.231166
C 2.900454 5.049964 4.259138
O 2.305381 4.724357 5.284772
C 2.554258 4.502781 2.862751
C 2.695121 5.550112 1.727307
C 2.650099 7.034847 2.028042
C 1.472398 7.634421 2.501092
C 1.414533 9.014406 2.730347
C 2.543262 9.794395 2.502886
O 2.463301 11.138704 2.718562
C 3.724649 9.223212 2.039058
O 4.801486 10.049198 1.842084
C 3.779512 7.849375 1.805244
O 3.405480 3.346174 2.575581
C 2.843923 2.084392 2.494672
O 1.665362 1.884834 2.397476
C 3.884201 1.032348 2.847608
C 5.097040 1.550585 3.220364
C 5.209208 1.639733 4.721280
C 5.208104 2.922703 5.276987
C 5.171009 3.097358 6.654632
C 5.219217 1.989481 7.485531
O 5.167259 2.201992 8.834419
C 5.323253 0.710037 6.960770
O 5.368719 -0.344336 7.823048
C 5.320602 0.534719 5.581050
H 3.779469 7.535903 5.425336
H 4.002180 6.005034 6.336274
H 5.383166 6.741256 5.451884
H 1.504188 4.188743 2.933673
H 1.893331 5.364127 1.005414
H 3.603985 5.339255 1.160226
H 0.577888 7.044261 2.677176
H 0.496330 9.477386 3.080538
H 3.344270 11.473649 2.457809
H 5.490494 9.536908 1.381669
H 4.695536 7.408161 1.431322
H 5.272318 3.797637 4.643516
H 5.123700 4.085945 7.079534
H 5.135923 1.313088 9.228673
H 4.899694 -1.095539 7.417775
H 5.423356 -0.468395 5.191248
C 11.976178 2.652644 -4.174430
O 11.137241 2.147997 -3.133288
C 10.857086 3.065913 -2.174155
O 11.199351 4.244695 -2.234012
C 10.126501 2.454053 -0.965330
C 10.909676 1.228157 -0.440398
C 12.037793 1.693312 0.477607
C 13.211527 2.280563 -0.026572
C 14.175555 2.801963 0.845555
C 13.959043 2.742299 2.228409
O 14.893638 3.310395 3.044673
C 12.810004 2.138567 2.726788
O 12.567652 2.030977 4.063669
C 11.862547 1.612032 1.865687
O 8.683515 2.379769 -1.142355
C 7.823460 1.493040 -0.570597
O 8.188174 0.450594 -0.035853
C 6.382225 2.033607 -0.344637
C 5.784756 2.702070 -1.422073
C 6.697517 3.676270 -2.184113
C 7.056784 4.910133 -1.602586
C 8.038217 5.707944 -2.181243
C 8.663412 5.295036 -3.352579
O 9.752247 5.990526 -3.783582
C 8.309485 4.100107 -3.966367
O 9.016937 3.623814 -5.031863
C 7.305129 3.324256 -3.408459
H 12.095608 1.863415 -4.926290
H 11.528623 3.521967 -4.660478
H 12.971888 2.907214 -3.783279
H 10.248041 3.262379 -0.228086
H 10.287066 0.533850 0.129373
H 11.333261 0.633458 -1.254862
H 13.389561 2.352486 -1.102406
H 15.070119 3.261476 0.458375
H 14.436334 3.526165 3.877529
H 13.410930 1.761317 4.467080
H 10.975071 1.127101 2.267609
H 6.585730 5.239390 -0.687671
H 8.341855 6.627238 -1.693302
H 10.506642 5.491977 -3.386406
H 8.891722 2.660241 -5.028268
H 7.082359 2.377258 -3.888490
C -1.123530 3.687083 -7.817553
O 0.059265 3.843159 -7.019541
C 0.484179 5.113152 -6.899690
O -0.117039 6.076470 -7.375112
C 1.871102 5.190219 -6.218519
C 2.274849 6.685741 -6.069102
C 2.385767 7.442634 -7.380793
C 1.696092 8.667280 -7.502752
C 1.571671 9.281877 -8.752843
C 2.158167 8.689245 -9.864294
O 2.004268 9.228053 -11.112847
C 2.928948 7.536187 -9.723139
O 3.521929 6.959103 -10.819419
C 3.067575 6.921254 -8.488871
O 1.955903 4.574727 -4.916192
C 2.184778 3.236386 -4.897267
O 2.353875 2.532418 -5.879257
C 2.139885 2.617747 -3.500397
C 0.848813 2.204991 -3.194436
C -0.249443 3.199964 -3.583696
C -0.201018 4.516084 -3.042959
C -1.182598 5.469972 -3.322295
C -2.258010 5.092885 -4.108654
O -3.301387 5.943292 -4.363788
C -2.313094 3.805776 -4.648618
O -3.357200 3.494762 -5.467056
C -1.333201 2.848989 -4.388774
H -1.880363 4.446254 -7.592325
H -0.860348 3.731434 -8.879824
H -1.555800 2.704104 -7.610359
H 2.594473 4.699568 -6.887867
H 1.559274 7.175610 -5.391560
H 3.240249 6.757734 -5.568577
H 1.183701 9.098167 -6.643154
H 0.975455 10.185739 -8.845475
H 1.096261 9.583037 -11.133436
H 3.181971 7.497460 -11.567990
H 3.634457 5.993229 -8.436823
H 0.643222 4.823045 -2.423610
H -1.084378 6.465152 -2.893972
H -3.152133 6.739280 -3.818096
H -3.884409 4.321515 -5.457259
H -1.414358 1.868123 -4.842736
C 2.786956 2.483301 -9.609460
O 2.847207 1.414705 -8.664668
C 1.659582 0.977374 -8.159818
O 0.569700 1.448689 -8.437189
C 1.811042 -0.294413 -7.297744
C 3.251786 -0.859731 -7.251017
C 3.656352 -1.688309 -8.488636
C 3.085440 -1.496605 -9.761121
C 3.422803 -2.316137 -10.839642
C 4.322391 -3.361191 -10.644246
O 4.652838 -4.213803 -11.659216
C 4.898854 -3.558578 -9.393092
O 5.706072 -4.637517 -9.171977
C 4.601156 -2.715885 -8.327135
O 1.015805 -0.242621 -6.086814
C 1.450242 -0.438334 -4.829313
O 2.596495 -0.379032 -4.406628
C 0.241892 -0.873114 -3.988985
C -0.396730 -2.051383 -4.398773
C 0.470225 -2.933434 -5.320385
C 1.636024 -3.577905 -4.825640
C 2.399093 -4.418662 -5.642403
C 2.008359 -4.618051 -6.959728
O 2.777608 -5.338004 -7.828077
C 0.897118 -3.952216 -7.468794
O 0.630380 -3.982168 -8.809953
C 0.149206 -3.112503 -6.660948
H 3.718826 3.050607 -9.520997
H 2.726738 2.064627 -10.620544
H 1.946645 3.161635 -9.419003
H 1.237713 -1.012649 -7.894779
H 3.349494 -1.526486 -6.386266
H 3.978888 -0.050516 -7.105805
H 2.340559 -0.729019 -9.956603
H 2.950974 -2.130880 -11.803920
H 4.452547 -3.762714 -12.491863
H 5.506215 -5.225062 -9.920187
H 5.035511 -2.909656 -7.353845
H 1.937021 -3.443347 -3.788850
H 3.286265 -4.888526 -5.228834
H 3.678801 -5.376400 -7.465821
H 1.487845 -4.162333 -9.212899
H -0.592380 -2.494897 -7.135401
C -2.327957 -4.680452 -11.073988
O -3.358811 -4.585668 -10.099629
C -3.544610 -3.359762 -9.556748
O -2.880284 -2.364578 -9.819999
C -4.737738 -3.401076 -8.560915
C -6.027684 -3.216675 -9.379829
C -6.367622 -4.366548 -10.309307
C -6.998310 -5.522097 -9.820068
C -7.252637 -6.594338 -10.677323
C -6.845152 -6.528811 -12.001843
O -7.074769 -7.597822 -12.818238
C -6.221602 -5.386255 -12.504613
O -5.835114 -5.384011 -13.813294
C -5.990030 -4.298709 -11.668038
O -4.713573 -2.415672 -7.484910
C -3.518008 -2.375534 -6.834558
O -2.564954 -3.044101 -7.213062
C -3.563809 -1.890472 -5.401606
C -4.565058 -1.031729 -5.004074
C -5.329881 -1.466392 -3.766166
C -4.881172 -1.228215 -2.456793
C -5.745464 -1.410709 -1.375616
C -7.047462 -1.857080 -1.604662
O -7.880149 -2.025238 -0.540182
C -7.502247 -2.121669 -2.896946
O -8.790037 -2.554128 -3.063050
C -6.658104 -1.913627 -3.983979
H -2.334495 -3.844652 -11.783141
H -2.505464 -5.596605 -11.661264
H -1.353075 -4.779950 -10.585658
H -4.760298 -4.379299 -8.064177
H -5.940840 -2.312146 -9.985344
H -6.882738 -3.045089 -8.718330
H -7.298566 -5.589842 -8.775350
H -7.747891 -7.485700 -10.309781
H -6.693196 -7.331785 -13.671733
H -5.493241 -4.497833 -14.014653
H -5.483793 -3.410070 -12.038918
H -3.887643 -0.807530 -2.276848
H -5.409563 -1.197844 -0.369975
H -8.695463 -2.392842 -0.933962
H -8.799049 -3.144532 -3.838207
H -7.025350 -2.061483 -4.995505
C -11.856400 1.790500 -9.565702
O -11.183174 0.539957 -9.375808
C -9.846613 0.660204 -9.141245
O -9.230930 1.714874 -9.251173
C -9.190989 -0.699615 -8.805752
C -10.076285 -1.783246 -8.185653
C -11.117886 -1.457607 -7.135854
C -10.778219 -1.215719 -5.790291
C -11.771130 -1.087709 -4.811447
C -13.119739 -1.190773 -5.175438
O -14.081114 -1.146631 -4.206226
C -13.469956 -1.387925 -6.509124
O -14.787111 -1.523447 -6.842348
C -12.487422 -1.515206 -7.490112
O -7.958313 -0.569964 -8.046322
C -6.921954 -0.186761 -8.838395
O -7.013175 -0.099095 -10.062621
C -5.620979 0.080010 -8.083118
C -4.754672 0.585335 -8.939391
C -4.312924 1.245935 -10.143404
C -4.979876 2.438657 -10.525765
C -4.816549 2.971463 -11.802513
C -3.986432 2.309466 -12.701646
O -3.814390 2.766889 -13.984479
C -3.334672 1.135274 -12.336079
O -2.535741 0.500434 -13.239371
C -3.482502 0.600888 -11.057608
H -11.649060 2.480245 -8.741161
H -11.562983 2.226074 -10.524017
H -12.932460 1.589431 -9.590595
H -8.932858 -1.130334 -9.787384
H -9.437898 -2.582336 -7.770662
H -10.623297 -2.262327 -9.017479
H -9.726670 -1.181263 -5.493088
H -11.497190 -0.944572 -3.761932
H -14.904006 -1.295022 -4.708879
H -14.857090 -2.418957 -7.234042
H -12.777575 -1.658480 -8.539787
H -5.713845 2.896928 -9.860396
H -5.363911 3.868053 -12.073876
H -4.533613 3.403569 -14.151701
H -2.463512 1.156231 -13.961886
H -2.984257 -0.326247 -10.804719
