464
Molecule ID: homopoly_12577030
O 10.697236 0.633497 -4.093477
C 9.516365 0.364958 -3.993333
O 8.504365 0.419742 -4.948986
C 8.988596 1.180471 -6.101770
C 7.949337 2.218631 -6.507969
C 7.592914 1.787058 -7.946546
C 7.565003 0.272693 -7.799674
C 9.019883 0.193221 -7.314765
C 9.747541 0.823343 -8.521848
C 11.132961 1.444504 -8.278270
C 10.869227 2.920281 -8.353254
C 9.615319 3.209322 -8.722249
C 8.786686 1.981167 -8.909034
C 9.009186 -0.101132 -2.692996
C 8.877228 -0.245578 -1.406666
H 9.954415 1.670954 -5.919874
H 8.355521 3.226228 -6.489744
H 7.085923 2.183780 -5.872146
H 6.662451 2.244925 -8.310536
H 7.401258 -0.238292 -8.756897
H 6.845538 -0.068229 -7.051290
H 9.373056 -0.809930 -7.077667
H 9.802751 0.083232 -9.321160
H 11.564175 1.134729 -7.325374
H 11.799864 1.164460 -9.077421
H 11.627188 3.654016 -8.151390
H 9.222463 4.212190 -8.825440
H 8.461564 1.880052 -9.946276
H 9.505986 0.392017 -0.807015
O 9.309519 -3.323862 1.302093
C 8.096361 -3.271990 1.519913
O 7.256333 -4.343607 1.447797
C 7.890059 -5.290167 0.586489
C 6.987181 -6.318753 -0.128863
C 7.919973 -7.563904 -0.219497
C 9.327102 -6.964563 -0.061261
C 8.971041 -6.201111 1.210905
C 8.393305 -7.332950 2.116710
C 7.223365 -7.014029 3.066199
C 6.159626 -7.979982 2.629810
C 6.503920 -8.724859 1.574581
C 7.856016 -8.361719 1.089472
C 7.436060 -1.924201 1.637326
C 6.875335 -1.591239 2.803490
H 8.348365 -4.730571 -0.232850
H 6.741540 -5.980844 -1.121979
H 6.038845 -6.496826 0.394405
H 7.766945 -8.162205 -1.114873
H 10.105508 -7.713911 0.091261
H 9.597311 -6.318228 -0.894243
H 9.792314 -5.671373 1.698730
H 9.227327 -7.782128 2.669326
H 7.532744 -7.221747 4.084663
H 6.872760 -5.976838 3.032010
H 5.200655 -8.035930 3.114338
H 5.867028 -9.441049 1.112268
H 8.504516 -9.244255 1.049911
H 6.686145 -2.375274 3.536694
O 4.444285 3.270241 5.048972
C 4.934979 2.166108 4.868235
O 5.798626 1.536021 5.698358
C 5.454488 1.704800 7.087210
C 6.171769 2.896011 7.769847
C 6.985445 2.205614 8.890666
C 7.495614 1.003612 8.122769
C 6.091982 0.482512 7.811208
C 5.546796 0.291260 9.228668
C 4.021767 0.260850 9.395645
C 3.730339 1.565245 10.045983
C 4.839276 2.259845 10.350983
C 6.075714 1.537296 9.960401
C 4.428117 1.155792 3.866367
C 3.112628 1.112790 3.515686
H 4.364021 1.773635 7.226792
H 6.857656 3.402322 7.082148
H 5.463241 3.614431 8.154495
H 7.744662 2.851205 9.334036
H 8.085161 0.316657 8.737946
H 8.056509 1.282310 7.226533
H 6.077597 -0.442029 7.211155
H 5.995143 -0.631186 9.647021
H 3.509291 0.141530 8.436787
H 3.724588 -0.570302 10.035998
H 2.721546 1.910569 10.235021
H 4.835745 3.222083 10.845670
H 6.651887 1.238276 10.826758
H 2.825133 0.228427 2.957464
O 1.656957 3.111027 0.750527
C 0.626167 3.534541 1.257805
O 0.138349 4.797413 1.133028
C 1.243721 5.760944 1.178382
C 0.681111 7.152891 1.580439
C 1.009941 8.027127 0.346769
C 0.942261 7.039701 -0.818892
C 1.921176 6.062004 -0.178415
C 3.162656 6.968944 0.138838
C 4.146495 7.159202 -1.011080
C 3.904578 8.560688 -1.466022
C 3.011598 9.205605 -0.705384
C 2.515481 8.349868 0.407813
C -0.058953 2.676073 2.309914
C -1.348625 2.706842 2.696703
H 2.022210 5.471405 1.908223
H 1.168126 7.541199 2.471252
H -0.367700 7.119416 1.766754
H 0.362883 8.910395 0.245857
H -0.036001 6.611487 -0.992798
H 1.313520 7.458229 -1.757757
H 2.141840 5.170334 -0.779631
H 3.673483 6.596660 1.035498
H 3.992118 6.447155 -1.815282
H 5.163813 7.070060 -0.639320
H 4.410350 8.994373 -2.314492
H 2.667364 10.216768 -0.871820
H 2.831457 8.766401 1.377827
H -1.620692 2.082889 3.529854
O -2.670748 2.926589 -0.840937
C -3.870979 3.091755 -0.675606
O -4.735007 3.396900 -1.678870
C -4.018843 3.586226 -2.920189
C -3.371570 2.305908 -3.445710
C -3.574187 2.413480 -4.956250
C -3.700352 3.918177 -5.186342
C -4.829208 4.087514 -4.162318
C -5.866332 3.040888 -4.638981
C -6.755082 3.518696 -5.781600
C -6.298103 2.776563 -6.967861
C -5.331401 1.906813 -6.697872
C -4.981928 1.906583 -5.236696
C -4.491986 2.761377 0.657591
C -5.799989 2.479411 0.604638
H -3.259521 4.341532 -2.746863
H -2.309197 2.344084 -3.214847
H -3.788117 1.399860 -3.022498
H -2.793483 1.903713 -5.548918
H -2.798681 4.468779 -4.931514
H -3.988811 4.198066 -6.199240
H -5.208917 5.105845 -4.040893
H -6.433543 2.657634 -3.787824
H -7.771380 3.255986 -5.565215
H -6.701217 4.596272 -5.933138
H -6.695723 2.938895 -7.969149
H -4.787833 1.304423 -7.415053
H -5.206470 0.945618 -4.781290
H -6.357232 2.833909 -0.239356
O -4.666567 -2.542870 1.666981
C -4.972990 -1.367366 1.748809
O -4.587227 -0.508347 2.734015
C -4.016655 -1.114516 3.912380
C -3.002563 -0.223540 4.669993
C -3.429271 -0.385091 6.144828
C -4.114341 -1.748450 6.145096
C -5.055720 -1.383923 4.993728
C -5.761268 -0.127399 5.637896
C -6.322931 0.974178 4.748015
C -5.451793 2.144680 5.014703
C -4.587493 1.937999 5.998816
C -4.633615 0.515192 6.477476
C -5.884897 -0.690381 0.778405
C -5.446120 -0.310486 -0.408009
H -3.514218 -2.054239 3.663112
H -1.986162 -0.592327 4.560263
H -3.048421 0.811555 4.342233
H -2.588672 -0.259891 6.833683
H -3.439606 -2.571745 5.867484
H -4.639177 -1.977413 7.073503
H -5.785614 -2.148691 4.716508
H -6.552738 -0.499103 6.310242
H -7.354416 1.182879 5.021341
H -6.306155 0.652469 3.719832
H -5.570624 3.080902 4.470668
H -3.880220 2.667760 6.353022
H -4.880243 0.484395 7.541484
H -5.040815 0.601498 -0.741317
O -6.704484 -5.015769 -2.736823
C -5.598048 -4.980789 -2.249018
O -4.838594 -6.010576 -1.788718
C -5.444171 -7.319830 -1.946132
C -5.199312 -8.171371 -0.719270
C -4.173925 -9.236592 -1.196042
C -3.374073 -8.445287 -2.208799
C -4.601108 -8.072227 -3.023847
C -5.176659 -9.460444 -3.377366
C -6.680718 -9.558922 -3.627041
C -7.153217 -10.449809 -2.516351
C -6.155124 -10.829660 -1.699792
C -4.847084 -10.284574 -2.106425
C -4.864571 -3.689330 -2.032005
C -3.572346 -3.479883 -2.357312
H -6.518391 -7.249237 -2.159093
H -4.792623 -7.602562 0.108286
H -6.115452 -8.645709 -0.379512
H -3.606777 -9.682357 -0.369809
H -2.664542 -9.040932 -2.771820
H -2.874831 -7.588761 -1.757445
H -4.385428 -7.488499 -3.918770
H -4.624215 -9.847708 -4.239148
H -7.171299 -8.587279 -3.598888
H -6.863142 -9.988322 -4.599724
H -8.196325 -10.711970 -2.386424
H -6.286080 -11.432687 -0.802654
H -4.151104 -11.091184 -2.358051
H -3.140672 -2.560513 -2.012379
O -1.288182 -1.456219 -2.694084
C -0.359730 -2.125537 -2.252601
O 0.957279 -1.799340 -2.349804
C 1.223481 -0.682158 -3.216981
C 2.523141 -0.956180 -3.953562
C 3.392670 0.273482 -3.609596
C 3.066459 0.425457 -2.133674
C 1.570072 0.598623 -2.379467
C 1.613523 1.858425 -3.283494
C 0.390588 2.116423 -4.162726
C 0.860382 1.724180 -5.526553
C 2.178580 1.437627 -5.563828
C 2.808666 1.569909 -4.216914
C -0.532032 -3.589208 -1.899387
C 0.096096 -4.263359 -0.920842
H 0.412610 -0.537434 -3.929696
H 2.369435 -1.071166 -5.035992
H 2.964950 -1.860192 -3.569344
H 4.453450 0.135554 -3.850205
H 3.319063 -0.467247 -1.548427
H 3.530754 1.303878 -1.678104
H 0.968830 0.738306 -1.466908
H 1.827526 2.729549 -2.644998
H 0.127812 3.170395 -4.156497
H -0.460217 1.525278 -3.849195
H 0.209313 1.689322 -6.386381
H 2.707986 1.111161 -6.449435
H 3.520613 2.389370 -4.200583
H -0.149497 -5.324166 -0.758311
O 6.370391 -2.909623 -0.720572
C 7.122269 -2.205129 -1.375462
O 7.149468 -2.186135 -2.737748
C 5.995765 -2.853241 -3.282781
C 5.977514 -4.363444 -3.133896
C 5.620475 -4.880565 -4.547051
C 4.783278 -3.735015 -5.108422
C 5.834797 -2.686240 -4.819237
C 7.092310 -3.274494 -5.550091
C 7.080249 -3.025197 -7.062005
C 6.855152 -4.356661 -7.668238
C 6.758872 -5.329686 -6.754473
C 6.907802 -4.799262 -5.368058
C 7.996008 -1.157601 -0.717115
C 7.915925 -0.981229 0.622448
H 5.096583 -2.450424 -2.792925
H 5.214289 -4.684108 -2.421701
H 6.970264 -4.727892 -2.819449
H 5.147411 -5.874766 -4.552099
H 3.858134 -3.592688 -4.538524
H 4.549073 -3.851485 -6.161880
H 5.585745 -1.669299 -5.137181
H 8.020965 -2.914921 -5.095661
H 6.288107 -2.337837 -7.351519
H 8.040804 -2.637801 -7.363473
H 6.733097 -4.501562 -8.741384
H 6.553718 -6.376383 -6.978945
H 7.781699 -5.258498 -4.887177
H 8.433899 -0.111205 1.063753
O 7.641386 1.898791 3.610811
C 7.696910 0.683894 3.640221
O 8.783245 -0.068320 3.930140
C 9.993435 0.618077 4.366483
C 10.349686 0.129518 5.764236
C 11.658695 -0.665792 5.555025
C 12.362720 0.214275 4.539676
C 11.225963 0.127500 3.518396
C 11.126447 -1.391368 3.307474
C 12.273740 -2.006227 2.481811
C 12.900180 -2.982087 3.417212
C 12.379090 -2.935922 4.640466
C 11.287580 -1.933490 4.754765
C 6.548812 -0.235474 3.263836
C 5.235392 0.036061 3.338195
H 9.923734 1.711094 4.368288
H 10.559210 0.975371 6.429733
H 9.567330 -0.484019 6.211100
H 12.221959 -0.876467 6.466259
H 12.546787 1.225052 4.898227
H 13.301793 -0.208567 4.179229
H 11.385086 0.708612 2.596834
H 10.173358 -1.667311 2.878722
H 11.863978 -2.507225 1.627025
H 13.010517 -1.266685 2.143070
H 13.701451 -3.645287 3.120729
H 12.678075 -3.558761 5.474573
H 10.361927 -2.401746 5.099034
H 4.600516 -0.738342 2.920279
O 1.652387 4.284534 3.742699
C 1.831818 3.262821 4.436998
O 1.312100 3.042682 5.663660
C 1.009731 4.205613 6.509132
C 0.068953 3.726669 7.617118
C -1.290440 4.409285 7.296254
C -1.209976 4.534876 5.775797
C 0.115273 5.293300 5.811871
C -0.232957 6.484502 6.746906
C 0.902361 7.084439 7.570874
C 0.445883 6.874652 8.975226
C -0.731131 6.243652 9.046534
C -1.269825 5.883200 7.708321
C 1.909330 1.955614 3.712406
C 0.844192 1.682135 2.904300
H 1.971781 4.596047 6.902941
H 0.426586 4.011443 8.613993
H -0.078610 2.644699 7.598977
H -2.155177 3.866732 7.682551
H -1.151486 3.582110 5.292091
H -2.034216 5.129058 5.356121
H 0.418765 5.661666 4.830491
H -0.685423 7.271522 6.124218
H 1.036554 8.131252 7.349600
H 1.865120 6.609355 7.404544
H 1.006274 7.190160 9.837152
H -1.253212 5.967489 9.964181
H -2.241760 6.354219 7.537252
H 0.825206 0.757612 2.318727
O -2.248050 5.586658 2.793540
C -2.544058 4.865253 1.864825
O -3.072533 5.251100 0.681359
C -2.890926 6.638460 0.328692
C -3.923836 7.598408 0.992967
C -4.766811 8.066196 -0.204373
C -4.763220 6.847845 -1.117179
C -3.232468 6.779113 -1.153696
C -2.832671 8.190218 -1.645851
C -2.971425 8.317509 -3.167635
C -4.120994 9.251286 -3.339762
C -4.621782 9.678773 -2.183280
C -3.904552 9.090554 -1.001657
C -2.499991 3.359597 2.053671
C -3.507205 2.512681 1.715754
H -1.863332 6.980340 0.515851
H -4.552435 7.056992 1.711728
H -3.407343 8.401569 1.470645
H -5.757356 8.452369 0.069565
H -5.233748 7.012599 -2.084841
H -5.224628 5.990908 -0.642752
H -2.800362 5.978281 -1.743108
H -1.833522 8.448344 -1.313949
H -2.070659 8.730384 -3.589436
H -3.173115 7.350838 -3.650365
H -4.509324 9.525546 -4.309542
H -5.470173 10.342768 -2.097462
H -3.463573 9.869566 -0.369349
H -3.399024 1.456980 1.936561
O -8.903743 1.651753 2.441160
C -7.966175 2.313562 2.032963
O -7.820817 3.673301 2.073475
C -9.043655 4.336611 2.470490
C -9.933009 4.648384 1.276347
C -10.304898 6.152403 1.500182
C -10.199815 6.290388 3.016219
C -8.787785 5.738982 3.067107
C -8.011650 6.631155 2.028373
C -7.515081 7.924023 2.626529
C -8.434591 8.962500 2.078494
C -9.312485 8.469073 1.207732
C -9.124621 6.987407 1.016404
C -6.744298 1.671648 1.401416
C -6.836670 0.289365 1.348628
H -9.610679 3.745535 3.218114
H -9.401176 4.542534 0.335372
H -10.821722 4.029698 1.319103
H -11.281122 6.412904 1.055868
H -10.937624 5.668976 3.563442
H -10.263070 7.314210 3.361962
H -8.303572 5.745167 4.057133
H -7.198172 6.072406 1.546622
H -7.571994 7.914066 3.708414
H -6.477383 8.071768 2.367966
H -8.420488 9.996391 2.421203
H -10.137990 9.014002 0.757059
H -8.829373 6.815062 -0.030048
H -7.681300 -0.202482 1.836695
O -5.905706 -1.286974 -3.870168
C -6.253538 -0.943666 -2.758982
O -7.320832 -0.192715 -2.379772
C -8.424033 -0.043763 -3.312008
C -9.603101 -0.927837 -2.855407
C -10.694142 0.073304 -2.456781
C -9.876299 1.201728 -1.861851
C -9.033679 1.385829 -3.110952
C -10.085817 1.632431 -4.213928
C -10.661567 3.055996 -4.239019
C -12.078486 2.906484 -3.790763
C -12.395221 1.627912 -3.555427
C -11.247929 0.695846 -3.770298
C -5.503597 -1.328242 -1.485634
C -5.495568 -2.652811 -1.216091
H -8.108246 -0.214173 -4.331909
H -9.932834 -1.608599 -3.644560
H -9.313334 -1.537027 -1.997475
H -11.474983 -0.337161 -1.806543
H -9.296347 0.894516 -0.989996
H -10.450470 2.083499 -1.603236
H -8.278071 2.166861 -3.018436
H -9.703789 1.357484 -5.199694
H -10.677490 3.443241 -5.248513
H -10.117226 3.745194 -3.596901
H -12.750640 3.724890 -3.672066
H -13.380615 1.288086 -3.238048
H -11.490949 -0.058115 -4.516928
H -5.729622 -3.075334 -0.252252
O -2.441598 -6.165002 -4.628796
C -3.100338 -5.215647 -4.247790
O -4.283986 -4.794935 -4.788074
C -4.712900 -5.515230 -5.964983
C -6.003649 -6.336768 -5.754274
C -6.939226 -5.859809 -6.887783
C -5.942692 -5.520230 -7.992139
C -5.150769 -4.554485 -7.099016
C -6.238851 -3.564939 -6.593535
C -6.573637 -2.474260 -7.616971
C -7.923006 -2.859610 -8.131261
C -8.431361 -3.929439 -7.503464
C -7.491181 -4.476584 -6.483645
C -2.671798 -4.339647 -3.086790
C -1.345474 -4.390149 -2.830224
H -3.933503 -6.169912 -6.360667
H -6.470858 -6.193657 -4.792782
H -5.784575 -7.402590 -5.894361
H -7.730058 -6.580021 -7.142358
H -5.363157 -6.381695 -8.308887
H -6.383036 -5.037907 -8.859011
H -4.314379 -4.049015 -7.606221
H -5.973654 -3.143819 -5.626489
H -6.656633 -1.521729 -7.120877
H -5.832570 -2.417928 -8.401499
H -8.419779 -2.319791 -8.915326
H -9.385114 -4.385687 -7.727541
H -7.926592 -4.460941 -5.477791
H -0.728241 -5.117875 -3.388293
O 1.004439 -2.759226 2.103899
C 0.994103 -3.790483 1.437360
O 1.122472 -5.061413 1.894418
C 1.535295 -5.154203 3.267197
C 0.292687 -5.261206 4.189360
C 0.421442 -6.664318 4.795127
C 0.986247 -7.457541 3.615643
C 2.211748 -6.561077 3.476852
C 2.837229 -6.623624 4.890338
C 3.567109 -7.942866 5.202803
C 2.819992 -8.532662 6.327174
C 1.735298 -7.837282 6.655581
C 1.587672 -6.606985 5.809000
C 1.132527 -3.797470 -0.037201
C 2.361953 -3.608379 -0.443092
H 2.237482 -4.357559 3.562831
H -0.629886 -5.175158 3.605079
H 0.303553 -4.481431 4.964448
H -0.512389 -7.059251 5.213583
H 1.222541 -8.489312 3.863078
H 0.324789 -7.423786 2.744213
H 2.880264 -6.846397 2.651960
H 3.477884 -5.750639 5.064984
H 3.550093 -8.626393 4.349137
H 4.607880 -7.729991 5.470620
H 3.126343 -9.453845 6.817908
H 1.025271 -8.109455 7.415152
H 1.561662 -5.725208 6.435521
H 3.424413 -3.624204 -0.555715
