704
Molecule ID: homopoly_121642
C 12.578413 -1.834795 -2.148401
C 11.468198 -2.135293 -2.829084
C 11.399012 -2.918794 -4.141754
O 12.307894 -3.387897 -4.766330
O 10.066019 -3.033714 -4.426472
C 9.693599 -4.279917 -4.992679
C 8.854257 -4.147232 -6.266530
C 9.806686 -4.108149 -7.504999
C 8.032577 -2.868917 -6.269656
C 7.943318 -5.427473 -6.380923
O 8.114607 -6.315767 -7.205766
O 6.955780 -5.408606 -5.438208
C 6.252015 -6.650708 -5.350022
C 4.964140 -6.483327 -4.493645
C 5.314472 -5.985246 -3.084326
C 4.317804 -7.870906 -4.362350
C 4.093844 -5.439386 -5.227019
O 2.868058 -5.153510 -4.576105
C 1.863097 -5.934135 -5.045342
O 1.961030 -6.869073 -5.819632
C 0.553727 -5.623873 -4.548949
C -0.696793 -5.934746 -4.393795
H 13.602615 -2.051187 -2.478026
H 12.503696 -1.349142 -1.149973
H 10.449371 -1.937600 -2.408662
H 9.066829 -4.829062 -4.171912
H 10.551097 -5.003657 -5.088110
H 9.984347 -5.112696 -7.968237
H 10.770907 -3.654303 -7.260789
H 9.347396 -3.505293 -8.303159
H 8.673285 -1.973968 -6.379118
H 7.305174 -2.815269 -7.103698
H 7.448642 -2.716478 -5.348910
H 6.924648 -7.384971 -4.889785
H 5.981732 -6.980718 -6.366213
H 5.764934 -4.985618 -3.103221
H 6.028042 -6.659321 -2.582965
H 4.422429 -5.949282 -2.458020
H 3.435775 -7.848608 -3.717373
H 4.996174 -8.616001 -3.913794
H 4.019309 -8.292369 -5.323419
H 4.635559 -4.483107 -5.312063
H 3.923676 -5.744638 -6.272668
H -0.822581 -6.992667 -4.677020
C -10.941689 -1.473323 -7.997455
C -10.935357 -2.654586 -7.367388
C -12.019598 -3.088591 -6.438150
O -13.171291 -2.709947 -6.526085
O -11.487380 -4.014703 -5.604807
C -12.320407 -4.537895 -4.576402
C -11.878349 -4.033532 -3.179503
C -12.816250 -4.688931 -2.113401
C -12.015634 -2.510791 -3.044433
C -10.431972 -4.451554 -2.852499
O -10.174025 -5.116085 -1.881858
O -9.492372 -3.991265 -3.751194
C -8.173280 -4.526351 -3.494636
C -7.238103 -4.726453 -4.735840
C -8.101047 -4.922278 -6.025718
C -6.419905 -5.977835 -4.463495
C -6.312016 -3.474292 -4.984743
O -4.996745 -3.506005 -4.373849
C -4.191070 -2.497683 -4.810255
O -4.531894 -1.632933 -5.591573
C -2.780283 -2.512604 -4.270848
C -2.103761 -1.330940 -4.057940
H -11.778829 -0.786522 -7.885808
H -10.110818 -1.189865 -8.642591
H -10.097514 -3.337486 -7.480332
H -13.378207 -4.309289 -4.756104
H -12.221798 -5.627253 -4.627973
H -12.433802 -4.527601 -1.095542
H -13.833436 -4.266906 -2.155958
H -12.879536 -5.775789 -2.264718
H -13.055341 -2.196062 -3.196963
H -11.714982 -2.175641 -2.047308
H -11.386825 -1.973491 -3.760104
H -7.699917 -3.910205 -2.748766
H -8.291413 -5.529190 -3.072449
H -8.317728 -3.957874 -6.498187
H -9.054519 -5.403898 -5.808548
H -7.570295 -5.527732 -6.755297
H -5.594307 -5.798062 -3.716683
H -7.011121 -6.814392 -4.036316
H -5.976389 -6.398608 -5.390166
H -6.815649 -2.544976 -4.663561
H -6.152713 -3.368630 -6.071325
H -1.142780 -1.397079 -3.624368
C 6.214057 9.778888 3.913038
C 6.321117 8.964601 2.850950
C 5.864385 9.391462 1.532328
O 5.446290 10.557294 1.290166
O 5.953172 8.383096 0.640656
C 5.524533 8.757518 -0.690862
C 5.786099 7.699869 -1.783177
C 5.786240 8.404197 -3.168070
C 7.176519 7.061095 -1.588226
C 4.704805 6.600310 -1.730159
O 4.877014 5.528792 -1.181486
O 3.527727 7.014899 -2.325367
C 2.342112 6.286624 -1.972824
C 1.681691 5.386532 -3.078579
C 2.677984 4.319205 -3.560189
C 1.253021 6.271435 -4.263156
C 0.410482 4.740161 -2.417828
O -0.246531 3.606923 -3.088830
C -0.398062 2.493083 -2.350078
O 0.115060 2.311476 -1.215996
C -1.621215 1.741546 -2.676809
C -2.426102 1.646210 -1.643492
H 6.501920 9.473824 4.912801
H 5.798824 10.783465 3.804458
H 6.704968 7.959068 2.940136
H 4.456827 8.966690 -0.617104
H 6.063038 9.684673 -0.951100
H 5.362182 7.765398 -3.960872
H 6.796352 8.702964 -3.478270
H 5.201820 9.335995 -3.128524
H 7.985582 7.806596 -1.698967
H 7.346790 6.264791 -2.328166
H 7.296301 6.609103 -0.595008
H 1.610204 7.043813 -1.651519
H 2.511177 5.703275 -1.055870
H 2.201135 3.344930 -3.744465
H 3.196840 4.602555 -4.491664
H 3.467734 4.121944 -2.824432
H 0.460331 5.798494 -4.858194
H 2.084846 6.500433 -4.949936
H 0.840265 7.237439 -3.922782
H -0.359870 5.517586 -2.299880
H 0.695701 4.410767 -1.420729
H -2.180896 2.179680 -0.712415
C -12.852618 -0.507888 2.528150
C -11.732980 -1.098107 2.073738
C -10.873623 -2.018989 2.854429
O -10.084863 -2.767574 2.296389
O -11.095933 -1.900526 4.182783
C -10.386424 -2.838958 5.015983
C -9.188961 -2.194360 5.765378
C -9.480059 -0.742494 6.152128
C -8.944744 -3.005467 7.037406
C -7.895882 -2.379055 4.934321
O -7.683295 -3.414418 4.290803
O -6.990581 -1.350292 5.070578
C -5.788931 -1.525979 4.297326
C -4.634321 -0.592611 4.724712
C -5.103182 0.860576 4.960096
C -4.100477 -1.122816 6.092727
C -3.462505 -0.646150 3.717146
O -3.764159 -0.447457 2.319134
C -2.592555 -0.524947 1.619123
O -1.466611 -0.612410 2.084268
C -2.791431 -0.551332 0.129829
C -2.055894 -1.503903 -0.498290
H -13.451210 0.119149 1.869608
H -13.200144 -0.627659 3.554196
H -11.424648 -0.982048 1.033088
H -10.115671 -3.749819 4.456965
H -11.139375 -3.162655 5.742530
H -8.629274 -0.257707 6.644988
H -10.315129 -0.682477 6.867094
H -9.748666 -0.101135 5.294721
H -9.839194 -2.986794 7.708165
H -8.098816 -2.607805 7.628575
H -8.729839 -4.074979 6.819193
H -5.998566 -1.281845 3.267223
H -5.447880 -2.573230 4.339417
H -4.556781 1.550745 4.314308
H -6.173638 0.969738 4.762231
H -4.934596 1.201046 5.995019
H -4.861120 -1.067820 6.899959
H -3.225825 -0.551847 6.439253
H -3.785334 -2.174641 6.026811
H -2.712039 0.082274 4.066737
H -3.037462 -1.650470 3.782472
H -2.056867 -1.568272 -1.594670
C -1.436115 5.831401 -11.422600
C -0.479112 5.440668 -10.572719
C -0.286902 4.018652 -10.261880
O -1.012974 3.115811 -10.687939
O 0.758052 3.888901 -9.420657
C 0.897267 2.573979 -8.848657
C 1.555985 2.632740 -7.437657
C 3.061034 2.905406 -7.574460
C 0.898881 3.767217 -6.647694
C 1.180725 1.335861 -6.706873
O 0.142479 0.736900 -6.999117
O 1.941387 0.929683 -5.662785
C 1.342584 -0.159303 -4.859357
C 2.385554 -0.801019 -3.944066
C 3.498753 -1.377096 -4.851809
C 2.922795 0.330267 -3.070564
C 1.833215 -2.036927 -3.063412
O 0.966302 -1.835453 -1.922778
C 1.549144 -1.982142 -0.684538
O 2.682013 -1.586014 -0.441452
C 0.813419 -2.764474 0.389850
C 1.406822 -3.258060 1.548905
H -1.584404 6.881704 -11.670752
H -2.093937 5.100368 -11.898417
H 0.176234 6.145968 -10.081728
H -0.099387 2.118094 -8.787916
H 1.484952 1.975093 -9.555443
H 3.657829 2.482853 -6.755807
H 3.471959 2.498112 -8.507268
H 3.275669 3.978735 -7.614279
H -0.203834 3.711509 -6.696026
H 1.196737 4.760438 -7.011153
H 1.161094 3.691556 -5.591802
H 0.877271 -0.918060 -5.508626
H 0.565450 0.311905 -4.257726
H 4.076032 -0.580891 -5.353572
H 4.201868 -2.011907 -4.299039
H 3.049640 -2.015639 -5.629663
H 3.476997 1.064391 -3.670164
H 2.092067 0.862459 -2.577485
H 3.590665 -0.031236 -2.284996
H 1.343981 -2.761483 -3.740855
H 2.715142 -2.666473 -2.773311
H 2.350318 -3.498592 0.800764
C 0.244088 -10.712136 5.497515
C 1.043454 -10.200045 6.433900
C 0.540363 -10.082939 7.814288
O -0.559757 -10.474485 8.159658
O 1.451688 -9.430688 8.580089
C 0.995817 -9.148413 9.911749
C 0.660020 -7.653172 10.135172
C 1.917408 -6.786952 10.049029
C 0.060195 -7.528030 11.559260
C -0.416066 -7.151958 9.138627
O -1.515689 -6.807867 9.479450
O -0.025921 -7.212767 7.827419
C -1.083660 -7.061690 6.836287
C -1.033296 -5.673822 6.105611
C -0.800376 -4.558099 7.153346
C -2.420576 -5.462425 5.429901
C 0.095742 -5.733202 5.036691
O 0.742906 -4.447130 4.758870
C 0.087834 -3.465587 4.164124
O -1.096826 -3.457172 3.757475
C 0.935023 -2.289695 4.194340
C 0.506255 -1.329485 5.062348
H 0.552823 -10.800067 4.461591
H -0.762142 -11.052840 5.751583
H 2.037853 -9.826054 6.221056
H 1.824853 -9.425158 10.571172
H 0.154119 -9.793822 10.200929
H 2.277433 -6.701943 9.022382
H 1.740377 -5.780555 10.446229
H 2.719911 -7.230121 10.641214
H 0.804636 -7.786465 12.315145
H -0.293282 -6.509437 11.752347
H -0.798930 -8.194683 11.689438
H -2.049601 -7.261327 7.319480
H -0.942133 -7.886049 6.116111
H -1.589325 -4.557174 7.917685
H -0.805883 -3.570757 6.683643
H 0.159482 -4.664546 7.658805
H -2.655929 -4.396383 5.358387
H -3.233357 -5.927560 6.000786
H -2.429707 -5.886178 4.416826
H 0.909918 -6.366359 5.397667
H -0.242483 -6.179249 4.089498
H -0.505779 -1.385040 5.440091
C 10.243292 -2.880780 1.269881
C 8.981641 -3.297710 0.941013
C 8.384967 -2.793033 -0.299983
O 7.796725 -3.551594 -1.081264
O 8.439561 -1.432341 -0.310463
C 8.075084 -0.750899 -1.522554
C 6.585469 -0.319625 -1.600395
C 6.390773 0.312608 -3.022036
C 5.693789 -1.569774 -1.435534
C 6.186553 0.793223 -0.609201
O 6.996580 1.625425 -0.157682
O 4.884856 0.739380 -0.231693
C 4.057465 1.954388 -0.211085
C 3.406917 2.332158 1.135776
C 4.448751 2.832988 2.125735
C 2.453326 3.513514 0.884496
C 2.591396 1.129500 1.675272
O 2.144811 1.244096 3.032839
C 0.928604 1.815553 3.261893
O 0.216040 2.432163 2.465278
C 0.522252 1.735630 4.715179
C -0.274531 2.608934 5.312032
H 10.831888 -2.203963 0.636212
H 10.709955 -3.273020 2.183600
H 8.413255 -4.000997 1.504444
H 8.722794 0.131196 -1.568803
H 8.338374 -1.341600 -2.396277
H 6.035967 -0.427372 -3.723928
H 7.339238 0.683836 -3.431830
H 5.708531 1.150037 -3.016698
H 5.902793 -2.308175 -2.209440
H 5.809209 -2.003624 -0.451226
H 4.661666 -1.309586 -1.531494
H 4.583980 2.777432 -0.713285
H 3.222657 1.722250 -0.887646
H 4.441694 3.929124 2.238428
H 5.470343 2.587099 1.815470
H 4.289901 2.444270 3.148890
H 1.563872 3.205348 0.320974
H 2.967932 4.284631 0.311737
H 2.118003 4.001101 1.821346
H 1.736598 0.857524 1.040909
H 3.203647 0.226350 1.708170
H -0.547927 2.513331 6.384290
C 6.625315 -2.631163 11.833275
C 5.759895 -1.771092 11.278513
C 6.200073 -0.900384 10.185840
O 7.301559 -1.028251 9.632908
O 5.264748 0.028702 9.911442
C 5.550536 0.866173 8.773065
C 6.270116 2.196479 9.105422
C 7.313862 2.048956 10.224933
C 6.958116 2.704575 7.809941
C 5.259466 3.236514 9.615753
O 4.304097 2.970642 10.368908
O 5.599344 4.493537 9.223923
C 4.920977 5.654847 9.768711
C 3.681687 6.125479 8.946947
C 3.275727 7.530242 9.414065
C 2.522273 5.178537 9.316659
C 4.047285 6.197737 7.422235
O 3.015296 6.731230 6.508463
C 2.121457 5.793676 6.129812
O 2.080170 4.682429 6.696086
C 1.177487 5.968966 4.960541
C 1.036251 6.827840 3.945189
H 7.657425 -2.686150 11.478265
H 6.338399 -3.310410 12.636884
H 4.730604 -1.699421 11.606080
H 6.130426 0.276655 8.044466
H 4.599278 1.068009 8.272116
H 7.700704 3.025914 10.541052
H 8.170902 1.447850 9.895453
H 6.896116 1.595407 11.137803
H 7.083934 1.906491 7.064372
H 6.401002 3.508475 7.307564
H 7.965439 3.085588 8.021395
H 5.693977 6.442821 9.755735
H 4.698533 5.489481 10.835469
H 2.362482 7.868740 8.903124
H 3.068161 7.555049 10.493157
H 4.065553 8.269304 9.199727
H 2.427078 5.062419 10.413897
H 2.662791 4.162326 8.911586
H 1.547745 5.554368 8.972342
H 4.926404 6.853936 7.291285
H 4.380324 5.223029 7.034582
H 0.251558 6.516652 3.239600
C -5.099405 -10.515810 3.130007
C -5.010552 -10.619219 1.800270
C -3.900928 -11.203325 1.039879
O -4.040292 -11.501440 -0.147127
O -2.751046 -11.318162 1.758351
C -1.652888 -11.895355 1.042558
C -0.742017 -10.842831 0.368454
C 0.347569 -11.544659 -0.456015
C -0.032271 -9.984016 1.454803
C -1.581574 -9.843332 -0.472822
O -1.887971 -8.776709 -0.061370
O -1.853704 -10.322375 -1.747903
C -2.674777 -9.375365 -2.452352
C -2.761501 -9.614678 -3.981136
C -3.483996 -10.964474 -4.251065
C -1.319436 -9.738360 -4.547455
C -3.559038 -8.421322 -4.642915
O -2.972422 -7.176428 -4.223853
C -3.065396 -6.020320 -4.956550
O -3.821376 -5.769977 -5.895361
C -1.947272 -5.134750 -4.476829
C -1.901352 -3.756109 -4.225056
H -4.317805 -10.846564 3.802671
H -5.979686 -10.083395 3.585696
H -5.845698 -10.278415 1.174472
H -1.075173 -12.439050 1.803734
H -2.011122 -12.658941 0.333291
H -0.064653 -12.318167 -1.108897
H 0.886035 -10.836363 -1.093282
H 1.081859 -12.025009 0.201115
H -0.741334 -9.351607 2.014049
H 0.495151 -10.626079 2.172297
H 0.709622 -9.319883 0.989995
H -3.677800 -9.414815 -2.021233
H -2.271850 -8.368258 -2.308481
H -4.392123 -11.059380 -3.637579
H -2.854311 -11.840879 -4.017408
H -3.786466 -11.050534 -5.305195
H -1.287799 -9.511266 -5.617752
H -0.628691 -9.062864 -4.031490
H -0.893994 -10.749805 -4.418191
H -4.596342 -8.444086 -4.290009
H -3.549010 -8.529741 -5.737821
H -0.891451 -3.520649 -3.907003
C 8.412276 -1.563637 -10.040470
C 8.034943 -2.077814 -11.221147
C 6.662338 -2.066213 -11.793658
O 6.485071 -2.243398 -12.988831
O 5.715055 -1.832622 -10.853687
C 4.363373 -1.965281 -11.315896
C 3.381870 -1.463795 -10.216127
C 3.543599 0.048189 -10.085957
C 3.694548 -2.147034 -8.882661
C 1.923689 -1.770767 -10.652670
O 1.626052 -2.212159 -11.736273
O 1.019214 -1.467924 -9.658435
C -0.348800 -1.882357 -9.908281
C -1.150160 -2.143928 -8.577790
C -0.186400 -2.729155 -7.502326
C -2.253669 -3.180819 -8.831854
C -1.890296 -0.857421 -8.105699
O -2.045021 -0.914521 -6.688572
C -2.488722 0.197451 -6.062809
O -2.946265 1.206316 -6.611014
C -2.242753 0.040967 -4.571590
C -1.898226 1.235974 -4.038984
H 7.740471 -1.041123 -9.380900
H 9.444580 -1.631203 -9.720340
H 8.813597 -2.561120 -11.845802
H 4.228999 -1.382788 -12.246783
H 4.176615 -3.031234 -11.553545
H 3.047489 0.581510 -10.911298
H 3.085453 0.394275 -9.155659
H 4.599894 0.353183 -10.079179
H 3.489898 -3.230857 -8.916058
H 3.087880 -1.726593 -8.065597
H 4.750567 -2.016506 -8.584239
H -0.329777 -2.809337 -10.484407
H -0.822315 -1.098166 -10.509730
H -0.655673 -2.801122 -6.527696
H 0.137138 -3.729818 -7.783238
H 0.701752 -2.115424 -7.373623
H -1.849094 -4.130480 -9.211743
H -2.802737 -3.411963 -7.906959
H -2.989447 -2.828813 -9.568378
H -2.885138 -0.782747 -8.548070
H -1.383732 0.052848 -8.430194
H -1.902212 2.079595 -4.709078
C -16.875444 4.454074 -1.607973
C -15.623880 4.764502 -2.066999
C -14.414045 4.768786 -1.171906
O -14.327575 4.533050 0.018679
O -13.399895 5.090088 -2.037033
C -12.025126 5.101930 -1.600058
C -11.211347 5.434675 -2.897365
C -11.661061 4.476832 -4.041397
C -11.482631 6.912544 -3.305257
C -9.682590 5.350819 -2.661268
O -9.189516 5.612674 -1.588556
O -9.034925 5.001725 -3.821612
C -7.601332 4.884996 -3.856158
C -7.066476 3.517255 -3.355762
C -7.197729 3.483495 -1.835113
C -7.895817 2.360012 -3.958482
C -5.567974 3.369635 -3.767795
O -4.681658 2.732752 -2.839487
C -4.814895 1.402010 -2.547077
O -5.690527 0.606785 -2.946697
C -3.710128 0.988373 -1.608338
C -3.838802 0.020001 -0.696096
H -17.078995 4.228297 -0.560929
H -17.695484 4.459144 -2.340883
H -15.447943 4.967241 -3.119731
H -11.876117 5.882714 -0.842625
H -11.723369 4.120123 -1.212716
H -12.651485 4.745435 -4.431003
H -10.989516 4.446889 -4.902830
H -11.730548 3.450364 -3.653966
H -12.554241 7.098418 -3.412372
H -10.983560 7.179710 -4.246076
H -11.104292 7.590008 -2.533258
H -7.368022 5.000288 -4.921777
H -7.140660 5.737042 -3.327237
H -6.829455 4.412223 -1.371134
H -8.236514 3.346831 -1.549608
H -6.639389 2.660533 -1.364235
H -7.425814 1.930705 -4.850515
H -8.060421 1.541069 -3.241574
H -8.905661 2.671955 -4.274028
H -5.439358 2.916501 -4.770094
H -5.103291 4.355825 -3.838008
H -4.784646 -0.491903 -0.589311
C -3.632560 5.221993 -0.226221
C -3.360538 4.630967 0.975985
C -4.094928 3.549849 1.592633
O -3.509688 2.837614 2.388906
O -5.397652 3.386992 1.162665
C -5.932245 2.074987 1.396362
C -7.378086 1.954308 1.904426
C -8.442793 2.532259 0.963476
C -7.527661 2.700159 3.255288
C -7.714124 0.468038 2.036692
O -8.641986 0.095757 2.754004
O -6.962978 -0.373429 1.224274
C -7.479348 -1.719048 1.176786
C -6.821757 -2.760708 0.219677
C -6.795140 -2.153710 -1.179755
C -7.828698 -3.957315 0.243449
C -5.449824 -3.429173 0.684851
O -4.207542 -2.857806 0.284474
C -3.084422 -3.594611 0.554327
O -3.070135 -4.688030 1.078448
C -1.844303 -2.778721 0.113446
C -0.579789 -3.274564 0.373646
H -4.467142 4.905672 -0.829094
H -3.004961 5.986619 -0.604521
H -2.471001 4.966216 1.510914
H -5.304073 1.525112 2.098943
H -5.814229 1.556364 0.443418
H -8.570254 1.916594 0.065213
H -9.427518 2.549245 1.453470
H -8.218314 3.573424 0.685822
H -6.552696 2.988926 3.683237
H -8.092882 3.640946 3.142493
H -8.060881 2.095659 4.007853
H -7.513519 -2.126157 2.181735
H -8.518307 -1.597160 0.852220
H -6.508848 -1.102848 -1.186020
H -6.113978 -2.691164 -1.846050
H -7.798327 -2.145455 -1.623217
H -7.518948 -4.750248 -0.451572
H -7.888193 -4.387794 1.252190
H -8.843653 -3.645303 -0.044990
H -5.438529 -4.446592 0.257435
H -5.455359 -3.569878 1.764422
H -0.665531 -4.255362 0.938138
C 9.463575 4.240420 -2.902739
C 9.602189 3.588008 -1.763022
C 9.787248 4.288958 -0.465006
O 9.796580 5.512996 -0.359876
O 9.959206 3.373391 0.516285
C 10.049461 3.921573 1.838264
C 10.251283 2.783671 2.865452
C 10.453447 3.396377 4.270733
C 11.495297 1.969457 2.462111
C 8.974305 1.920750 2.882194
O 7.881383 2.386385 2.590469
O 9.181036 0.648619 3.364198
C 8.297556 -0.347015 2.832983
C 7.028693 -0.728522 3.615216
C 7.427587 -1.183290 5.017193
C 6.086100 0.442298 3.797510
C 6.296263 -1.848622 2.809750
O 4.854921 -1.947351 3.062319
C 4.156899 -2.755095 2.189322
O 4.692648 -3.377029 1.234489
C 2.656144 -2.795937 2.471550
C 2.329850 -2.383658 3.687840
H 9.318479 3.716324 -3.864354
H 9.473821 5.347044 -2.927055
H 9.585276 2.496438 -1.708787
H 10.913006 4.592749 1.840364
H 9.142948 4.500199 2.028396
H 9.507382 3.809443 4.659728
H 11.208422 4.201577 4.237650
H 10.798655 2.621880 4.972947
H 12.346297 2.632094 2.267359
H 11.325106 1.369560 1.559433
H 11.799891 1.273838 3.251433
H 8.936683 -1.231174 2.810657
H 8.085237 -0.102067 1.784052
H 7.823443 -2.206635 5.033576
H 6.585452 -1.134180 5.729824
H 8.216590 -0.545091 5.457335
H 5.158143 0.179079 4.352106
H 6.532344 1.293657 4.344514
H 5.765807 0.787612 2.811778
H 6.422754 -1.659993 1.724111
H 6.666067 -2.857891 3.041158
H 3.091637 -1.947767 4.322240
C 8.999321 -8.039563 -0.051404
C 7.926732 -7.948434 0.756091
C 8.085697 -8.183661 2.196467
O 9.140568 -8.535311 2.710975
O 6.917449 -7.912973 2.831037
C 6.948409 -8.145562 4.250511
C 7.295695 -6.871221 5.083349
C 7.741009 -7.336472 6.489279
C 8.429902 -6.036099 4.450909
C 6.071031 -5.968882 5.220147
O 5.012429 -6.111337 4.577665
O 6.312238 -4.980149 6.119156
C 5.382576 -3.888770 6.211455
C 4.343582 -4.031108 7.349259
C 5.075698 -4.487834 8.643844
C 3.304094 -5.088121 6.951659
C 3.662694 -2.647959 7.655256
O 2.738646 -2.176184 6.636569
C 2.333689 -0.899364 6.830201
O 2.707947 -0.244686 7.814476
C 1.362599 -0.401844 5.765532
C 1.320812 0.948590 5.641308
H 8.933743 -7.885270 -1.122376
H 9.973328 -8.281996 0.359953
H 6.942487 -7.713256 0.372296
H 7.647519 -8.965556 4.490711
H 5.957647 -8.532073 4.534387
H 6.956536 -7.941268 6.976057
H 8.653918 -7.952550 6.425884
H 7.976275 -6.483917 7.149249
H 9.382275 -6.584507 4.467833
H 8.594999 -5.092039 4.985332
H 8.209475 -5.749745 3.413721
H 4.931169 -3.666404 5.238437
H 6.016586 -3.030134 6.442201
H 5.303030 -5.565057 8.629606
H 6.028514 -3.946228 8.771495
H 4.454410 -4.299221 9.529758
H 3.704701 -6.110902 7.043906
H 2.416767 -5.015645 7.593230
H 2.974922 -4.948023 5.914467
H 4.467191 -1.904631 7.792550
H 3.102762 -2.752446 8.601386
H 1.976668 1.551157 6.279970
C -4.859277 7.666606 -5.176351
C -5.352518 8.226320 -4.066356
C -4.755090 8.028015 -2.745486
O -3.689194 7.358649 -2.559639
O -5.494991 8.623482 -1.816221
C -5.085929 8.522491 -0.429096
C -6.074213 9.343239 0.416718
C -6.026741 10.818090 -0.081689
C -7.506477 8.804736 0.219371
C -5.774732 9.355268 1.923232
O -6.137917 10.300928 2.619659
O -5.145973 8.243895 2.417169
C -5.021056 8.222389 3.870477
C -3.661610 7.686162 4.413464
C -3.499278 8.180121 5.869638
C -2.516815 8.240641 3.561897
C -3.583518 6.128218 4.439945
O -2.192793 5.716024 4.561697
C -1.993563 4.484290 5.101445
O -2.836928 3.816705 5.643107
C -0.575443 4.008942 4.897045
C 0.575556 4.646119 4.679544
H -5.316973 7.827890 -6.147308
H -3.971352 7.032992 -5.137664
H -6.235640 8.855524 -4.097634
H -4.054988 8.893570 -0.331844
H -5.121928 7.465912 -0.150791
H -5.012150 11.237223 0.037081
H -6.303640 10.905635 -1.144543
H -6.725117 11.453474 0.483337
H -8.184307 9.156505 1.005753
H -7.926992 9.127109 -0.746584
H -7.518616 7.703388 0.238250
H -5.857117 7.628605 4.253926
H -5.138482 9.236937 4.265856
H -4.366984 7.887886 6.487741
H -3.423783 9.278963 5.920992
H -2.595801 7.759215 6.341348
H -1.600637 8.320685 4.160044
H -2.723284 9.239695 3.159551
H -2.316512 7.573054 2.714423
H -4.197522 5.747066 5.272549
H -3.973013 5.719437 3.497352
H 1.449898 4.007688 4.530554
C 1.822434 9.091723 -11.113037
C 1.978178 9.771179 -9.979771
C 2.304974 9.165923 -8.684323
O 2.437576 7.915920 -8.500900
O 2.401945 10.129876 -7.769287
C 2.630255 9.709745 -6.413732
C 2.416482 10.867680 -5.388517
C 1.049928 11.533918 -5.613053
C 3.547939 11.903183 -5.507962
C 2.483571 10.215103 -4.004490
O 2.850845 9.074219 -3.851180
O 2.105877 11.028005 -2.973124
C 2.079500 10.354034 -1.688812
C 1.168600 11.060457 -0.648855
C -0.158664 11.488598 -1.367529
C 1.853066 12.302443 -0.069582
C 0.748102 10.077573 0.488389
O 1.717466 9.538502 1.428309
C 1.053725 8.652237 2.241001
O -0.133731 8.384085 2.031616
C 1.729332 8.007154 3.415873
C 2.986172 8.198335 3.697635
H 1.936061 8.012948 -11.163583
H 1.580782 9.599373 -12.039449
H 1.863182 10.840325 -9.963011
H 3.652125 9.325962 -6.351736
H 1.943712 8.891217 -6.185827
H 0.962170 11.920027 -6.638477
H 0.237909 10.810932 -5.444240
H 0.895124 12.377181 -4.922109
H 3.422861 12.723928 -4.796525
H 4.527048 11.460452 -5.301158
H 3.586131 12.333995 -6.512462
H 3.102045 10.313987 -1.312286
H 1.695122 9.334290 -1.822171
H 0.008948 12.242994 -2.155239
H -0.634050 10.611313 -1.843974
H -0.877683 11.908816 -0.642803
H 2.367828 12.069623 0.866277
H 2.599673 12.720889 -0.753826
H 1.129836 13.097513 0.153976
H 0.235849 9.251942 -0.032396
H -0.007030 10.625019 1.079270
H 4.004968 8.194098 4.034580
