224
Molecule ID: homopoly_13835
C -10.837048 5.068151 2.715557
C -10.430493 3.796214 2.580059
C -9.089706 3.271515 2.986676
O -8.416045 2.879395 1.794621
C -7.291381 2.155431 2.008130
O -6.784830 1.901510 3.087400
C -6.760283 1.629832 0.774948
C -6.417808 1.118521 -0.372949
H -11.823460 5.375415 2.392938
H -10.198912 5.825682 3.160527
H -11.102732 3.073736 2.127098
H -8.496605 4.027300 3.511920
H -9.238757 2.408209 3.645389
H -6.388239 1.743990 -1.262298
C -8.818749 -2.521720 4.356181
C -8.676166 -2.562068 3.024033
C -7.761065 -3.493991 2.287467
O -6.948077 -2.701924 1.415587
C -6.140755 -3.441350 0.614425
O -6.015479 -4.657639 0.676743
C -5.372146 -2.549705 -0.331170
C -4.559312 -3.203614 -1.191989
H -9.502194 -1.812910 4.813836
H -8.262394 -3.184336 5.016034
H -9.259860 -1.879322 2.409889
H -8.367320 -4.197003 1.700256
H -7.124368 -4.056752 2.982843
H -4.535639 -4.291054 -1.134436
C 0.333492 -4.103552 -8.835248
C -0.208025 -4.771104 -7.806575
C -1.454398 -4.331773 -7.092452
O -1.092646 -4.049664 -5.739797
C -2.090531 -3.455928 -5.033818
O -3.237426 -3.289960 -5.423948
C -1.633789 -3.122625 -3.645585
C -0.421087 -2.611334 -3.347361
H 1.243327 -4.453972 -9.318585
H -0.119779 -3.189045 -9.212881
H 0.266817 -5.678066 -7.444126
H -2.185230 -5.150655 -7.116021
H -1.882663 -3.441550 -7.566418
H -0.166401 -2.463744 -2.293857
C -1.259876 -7.066114 -1.139232
C -0.009737 -6.583148 -1.050556
C 0.866864 -6.303235 -2.230593
O 1.478879 -5.014566 -2.072867
C 2.302865 -4.727429 -3.108870
O 2.615371 -5.487744 -4.019667
C 2.615105 -3.274900 -3.145049
C 3.575464 -2.612222 -2.471436
H -1.820724 -7.302509 -0.246405
H -1.727690 -7.282862 -2.094239
H 0.411275 -6.420583 -0.063345
H 1.639214 -7.073927 -2.298929
H 0.272997 -6.296058 -3.153442
H 3.604513 -1.546659 -2.724370
C 7.445916 -5.415333 -3.820885
C 8.381670 -5.616488 -2.878967
C 8.663999 -4.753226 -1.685789
O 7.651591 -3.755558 -1.546307
C 7.836939 -2.933685 -0.485344
O 8.783585 -2.976531 0.291779
C 6.745097 -1.911348 -0.424102
C 6.987717 -0.846932 0.379884
H 7.331185 -6.116548 -4.643347
H 6.762909 -4.570028 -3.780106
H 9.031465 -6.487501 -2.981367
H 9.650946 -4.278320 -1.815558
H 8.677634 -5.384942 -0.785458
H 7.909276 -0.775140 0.953253
C 1.044619 -4.163441 2.556026
C 1.019410 -2.836440 2.737883
C 1.208589 -1.842916 1.633976
O 2.185074 -0.900960 2.072897
C 2.533048 -0.018889 1.105577
O 2.044940 0.083930 -0.007993
C 3.740356 0.718057 1.553381
C 3.658648 1.938197 2.114101
H 1.195078 -4.601112 1.574012
H 0.909762 -4.847480 3.389583
H 0.847742 -2.435065 3.733696
H 1.557456 -2.343752 0.715012
H 0.270453 -1.321959 1.426113
H 4.557051 2.429758 2.473773
C -2.402112 -1.409514 2.297563
C -2.246397 -0.074049 2.285814
C -1.379974 0.701182 3.235159
O -0.445115 1.515863 2.504979
C -0.893966 2.757335 2.180947
O -2.043358 3.151008 2.318525
C 0.229815 3.596550 1.630947
C -0.099579 4.866775 1.337630
H -1.900346 -2.042535 3.023932
H -3.045180 -1.898113 1.575739
H -2.786328 0.518166 1.550864
H -0.777621 0.020431 3.848302
H -1.994216 1.297055 3.917747
H -1.135922 5.173648 1.455191
C 6.269469 6.416670 4.666256
C 5.198706 7.096034 4.242884
C 3.829237 6.972967 4.848709
O 2.864656 6.978044 3.788959
C 1.593746 7.141803 4.241818
O 1.281908 7.295784 5.416306
C 0.620482 7.182052 3.097155
C -0.669865 7.408522 3.463932
H 7.239962 6.569659 4.193139
H 6.217469 5.686042 5.469468
H 5.309299 7.836094 3.446232
H 3.731383 6.042257 5.420030
H 3.671676 7.835272 5.511102
H -0.911004 7.481307 4.520672
C -11.736638 0.034470 0.160050
C -10.813242 -0.732326 -0.435050
C -10.034861 -0.323904 -1.649733
O -8.728122 0.087388 -1.240249
C -7.785662 -0.890367 -1.179170
O -7.968111 -2.062674 -1.492099
C -6.523040 -0.320246 -0.586620
C -5.479869 -1.104693 -0.244507
H -12.264687 -0.322362 1.039987
H -11.986905 1.028066 -0.208296
H -10.583653 -1.709733 -0.033596
H -10.496516 0.540591 -2.135445
H -10.003039 -1.122753 -2.401492
H -4.591154 -0.632629 0.180353
C -3.017400 1.741326 -5.849163
C -3.519493 0.780640 -5.065538
C -3.339361 0.728603 -3.575781
O -3.007639 -0.595389 -3.124170
C -4.076459 -1.422390 -2.971279
O -5.233201 -1.151942 -3.268583
C -3.676175 -2.668269 -2.233627
C -2.582469 -3.383428 -2.568930
H -3.199597 1.719068 -6.916929
H -2.413194 2.547055 -5.452698
H -4.135551 -0.000853 -5.512494
H -2.515067 1.380473 -3.265004
H -4.239988 1.092836 -3.064769
H -2.361615 -4.295580 -2.026784
C 2.094147 3.149203 -4.651219
C 1.110281 2.237590 -4.637238
C 0.912369 1.168377 -5.671041
O 1.168602 -0.076217 -5.010592
C 0.299832 -1.089575 -5.244070
O -0.638985 -1.076024 -6.023626
C 0.618455 -2.180180 -4.265733
C 1.927512 -2.494976 -4.174320
H 2.176516 3.871509 -3.842699
H 2.830274 3.182069 -5.446358
H 0.400338 2.239301 -3.811457
H -0.096923 1.239948 -6.094151
H 1.628404 1.267202 -6.485682
H 2.618559 -2.066780 -4.905257
C 3.296926 -7.014052 0.466429
C 4.457514 -7.307973 -0.134152
C 5.248750 -6.456213 -1.089278
O 4.600110 -5.257247 -1.529595
C 4.760952 -4.184552 -0.727258
O 5.043782 -4.196535 0.460969
C 4.632850 -2.921255 -1.510975
C 5.565414 -1.959889 -1.297833
H 2.833839 -7.717457 1.150254
H 2.801744 -6.066361 0.316365
H 4.917405 -8.269033 0.094980
H 5.438042 -7.051078 -1.996903
H 6.234107 -6.230262 -0.654732
H 5.476681 -1.033600 -1.861796
C 8.915467 2.176056 -3.900019
C 8.466229 2.444982 -2.667156
C 7.031345 2.367728 -2.238289
O 6.931902 1.281047 -1.302087
C 6.172684 1.519472 -0.202930
O 5.666468 2.588164 0.098568
C 6.039456 0.249123 0.594608
C 4.979567 -0.018354 1.383871
H 8.246361 1.860499 -4.697970
H 9.972137 2.256398 -4.131812
H 9.172227 2.766466 -1.900810
H 6.741456 3.333675 -1.816149
H 6.380010 2.141119 -3.080406
H 4.959587 -0.981985 1.913026
C 2.296152 0.003669 7.346827
C 1.808218 0.864743 6.446116
C 2.473502 2.146872 6.052896
O 2.749828 2.073839 4.649500
C 2.127303 2.982751 3.859656
O 1.419419 3.902917 4.230771
C 2.424422 2.659897 2.423923
C 1.563464 3.038396 1.453706
H 3.242146 0.169258 7.849766
H 1.762229 -0.917262 7.577572
H 0.860929 0.648409 5.961355
H 3.431687 2.278610 6.567103
H 1.834608 2.995096 6.327616
H 1.806958 2.831813 0.413523
C 2.431911 9.542681 -3.360544
C 2.615335 8.441034 -2.619222
C 1.597592 7.372114 -2.389018
O 1.435230 7.235770 -0.972948
C 1.167865 5.965888 -0.543956
O 1.133989 4.970950 -1.252704
C 0.762990 5.955041 0.902036
C 1.077927 6.990584 1.718695
H 1.497709 9.749279 -3.872666
H 3.231281 10.273650 -3.461155
H 3.578456 8.289883 -2.137412
H 0.627611 7.642709 -2.816884
H 1.950250 6.443974 -2.865252
H 1.734213 7.788955 1.379904
C -4.188450 3.791939 6.247599
C -4.071874 5.080734 5.894514
C -4.269184 5.591896 4.500371
O -3.067413 6.276927 4.128218
C -3.166066 6.968624 2.965725
O -4.183127 7.089995 2.293605
C -1.837510 7.568009 2.603055
C -1.782533 8.313343 1.532323
H -4.427960 3.017963 5.527568
H -4.045259 3.488205 7.286467
H -3.832502 5.820674 6.653934
H -5.115362 6.283299 4.496889
H -4.458516 4.778232 3.796218
H -1.743875 8.918484 0.655942
