384
Molecule ID: homopoly_641297
C -4.290489 -1.482767 0.623687
O -3.480634 -1.726901 1.774641
C -2.200193 -2.109453 1.491895
O -1.711945 -2.403716 0.399429
C -1.447761 -2.183665 2.718941
C -0.965274 -2.244116 3.933955
C 0.494356 -2.424378 4.056545
C 1.086587 -3.620126 3.637602
C 2.424412 -3.878047 3.899012
C 3.236369 -2.905158 4.471754
O 4.507198 -3.314889 4.773921
C 5.442066 -2.296425 5.121695
C 2.693104 -1.644658 4.751710
C 1.326068 -1.409678 4.546539
H -3.720944 -1.239594 -0.285806
H -4.941549 -2.352314 0.441368
H -4.928766 -0.623597 0.858500
H 0.470253 -4.405937 3.192414
H 2.838879 -4.857649 3.668800
H 6.412198 -2.771694 5.294185
H 5.574964 -1.577680 4.315486
H 5.188736 -1.793677 6.061655
H 3.291879 -0.854756 5.185369
H 0.909445 -0.430542 4.801710
C -0.066865 -6.026980 5.636593
O 0.068565 -4.667382 6.044359
C -0.490911 -4.285968 7.219982
O -0.988169 -5.043995 8.035877
C -0.615763 -2.768421 7.097419
C -0.182510 -1.924547 8.080825
C -0.497503 -2.181580 9.519743
C -1.393537 -1.297973 10.149335
C -1.598777 -1.356541 11.528698
C -0.960347 -2.323235 12.293744
O -1.170164 -2.268745 13.639642
C -0.992678 -3.481329 14.362948
C -0.102571 -3.226924 11.666124
C 0.095182 -3.177920 10.287278
H -0.794286 -6.048752 4.809414
H 0.903524 -6.394198 5.256157
H -0.362235 -6.686840 6.457561
H -1.911903 -0.517824 9.593805
H -2.243607 -0.622963 12.010342
H -1.171104 -4.377967 13.762948
H 0.012391 -3.500805 14.794137
H -1.721017 -3.471986 15.178471
H 0.441089 -3.968892 12.237099
H 0.727851 -3.930998 9.834863
C 2.924984 -0.473392 11.235155
O 2.305575 -0.102273 10.001114
C 2.893054 0.942654 9.345403
O 3.710201 1.679616 9.880349
C 2.310732 1.076190 7.904355
C 2.941055 1.929902 7.007406
C 4.344113 2.310829 7.361360
C 5.366531 1.361829 7.213863
C 6.662893 1.674559 7.594625
C 6.968405 2.929916 8.127989
O 8.278795 3.114213 8.467551
C 8.590958 4.319715 9.141907
C 5.956839 3.883058 8.253764
C 4.642981 3.573862 7.893101
H 3.225577 -1.529020 11.171696
H 3.820439 0.117298 11.495193
H 2.178505 -0.386413 12.032221
H 5.151571 0.375911 6.814602
H 7.446473 0.933194 7.487515
H 7.939842 4.499506 10.003662
H 9.605828 4.226395 9.531059
H 8.570876 5.169571 8.454322
H 6.135013 4.874824 8.649699
H 3.850147 4.299470 8.072019
C -0.444634 6.409532 4.155098
O 0.840295 5.804060 3.980969
C 0.783915 4.441504 3.893472
O -0.220323 3.762650 3.923206
C 2.127506 3.868871 3.517309
C 2.475586 4.094900 2.187008
C 1.863940 5.275069 1.450205
C 0.523493 5.304025 1.047882
C 0.025307 6.347083 0.256221
C 0.860531 7.370486 -0.150415
O 0.526632 8.438028 -0.946957
C -0.754071 8.375812 -1.572784
C 2.186157 7.378000 0.290641
C 2.678667 6.356028 1.092432
H -1.096673 6.217524 3.296088
H -0.298436 7.487204 4.239544
H -0.925322 6.046989 5.072002
H -0.166134 4.524678 1.364020
H -1.015152 6.310485 -0.029726
H -0.843947 9.248377 -2.222163
H -0.849352 7.485892 -2.199254
H -1.562011 8.424075 -0.838554
H 2.851685 8.181160 -0.015850
H 3.716838 6.409365 1.412579
C 2.707483 3.372285 -4.294779
O 2.834543 2.430786 -3.228911
C 3.125444 3.008532 -2.029556
O 3.149651 4.216978 -1.813741
C 3.380209 1.954664 -0.954764
C 4.095020 0.833043 -1.283920
C 4.695802 -0.091931 -0.268732
C 6.080185 -0.319004 -0.353130
C 6.656449 -1.455330 0.205886
C 5.878134 -2.372606 0.900644
O 6.555748 -3.531204 1.142000
C 6.239615 -4.272959 2.315554
C 4.545556 -2.074582 1.140246
C 3.959255 -0.917696 0.582881
H 1.833675 4.022238 -4.114904
H 2.534249 2.834659 -5.231398
H 3.618085 3.964385 -4.404598
H 6.723105 0.347972 -0.906678
H 7.715033 -1.656560 0.029230
H 6.820413 -5.200485 2.276430
H 6.587557 -3.723103 3.189058
H 5.183518 -4.547185 2.388543
H 3.911192 -2.750305 1.715531
H 2.888152 -0.731703 0.730521
C 1.130611 -2.361389 -0.511433
O 2.035682 -1.975799 -1.550057
C 1.737525 -0.752055 -2.067944
O 0.970040 0.064031 -1.583413
C 2.317848 -0.621225 -3.439511
C 1.392012 -0.949772 -4.415933
C -0.018393 -0.559527 -4.125112
C -0.962130 -1.461273 -3.617020
C -2.210094 -0.983696 -3.189034
C -2.541863 0.367876 -3.333536
O -3.802267 0.688764 -2.893382
C -4.300073 1.974127 -3.263050
C -1.614753 1.259751 -3.853940
C -0.360910 0.794304 -4.259597
H 1.625100 -3.092347 0.129403
H 0.252915 -2.845066 -0.955556
H 0.806485 -1.523870 0.129512
H -0.706622 -2.503073 -3.429994
H -2.908600 -1.675243 -2.726561
H -4.332529 2.094358 -4.346223
H -3.719871 2.788399 -2.806646
H -5.327612 2.055376 -2.891920
H -1.812914 2.316636 -3.946671
H 0.374280 1.497912 -4.652366
C 2.518536 -0.540163 -10.760755
O 1.567580 -1.031269 -9.821182
C 1.624353 -0.452671 -8.585790
O 2.445149 0.380700 -8.235461
C 0.568683 -0.998112 -7.649089
C -0.754449 -0.723412 -7.963030
C -0.992786 -0.229236 -9.383216
C -0.708421 1.083835 -9.791487
C -0.964253 1.474523 -11.106265
C -1.506953 0.569963 -12.030531
O -1.859952 0.823659 -13.321198
C -1.792664 2.179321 -13.763619
C -1.731778 -0.749992 -11.628697
C -1.453036 -1.147698 -10.327146
H 3.321565 -1.276571 -10.850058
H 2.035504 -0.434275 -11.731818
H 2.950778 0.427547 -10.483445
H -0.273933 1.801636 -9.100610
H -0.707451 2.486599 -11.398365
H -0.781320 2.410917 -14.107452
H -2.105473 2.894502 -12.998958
H -2.478234 2.291833 -14.605715
H -2.110075 -1.472757 -12.347868
H -1.567996 -2.200134 -10.060220
C -4.619929 1.202231 -9.637325
O -4.024430 0.049058 -9.043478
C -4.930732 -0.899280 -8.663445
O -5.978047 -1.093889 -9.274028
C -4.495143 -1.485153 -7.299655
C -5.460562 -1.562363 -6.307317
C -6.835881 -1.082420 -6.661743
C -7.126560 0.288933 -6.694549
C -8.422946 0.722059 -6.990212
C -9.436078 -0.216243 -7.212706
O -10.754144 0.072548 -7.476303
C -11.093111 1.460002 -7.525485
C -9.140698 -1.581068 -7.151251
C -7.842054 -2.019237 -6.888762
H -5.138636 0.968355 -10.567922
H -3.813604 1.910842 -9.875473
H -5.315269 1.676853 -8.934248
H -6.351339 1.034816 -6.516256
H -8.613218 1.786740 -7.039286
H -10.553935 1.970305 -8.333312
H -12.163170 1.529250 -7.738031
H -10.906165 1.949693 -6.563908
H -9.926817 -2.314073 -7.299568
H -7.620841 -3.084235 -6.847997
C -4.918781 -4.087517 3.909147
O -3.561303 -3.680798 4.086492
C -3.430259 -2.401530 4.565091
O -4.364918 -1.612710 4.699989
C -1.990235 -2.281998 5.028712
C -1.876793 -2.420204 6.396774
C -3.160352 -2.510179 7.178015
C -3.814123 -3.735300 7.336587
C -5.134520 -3.767326 7.791990
C -5.787466 -2.574533 8.102027
O -7.137649 -2.640751 8.333267
C -7.839253 -1.605994 7.638951
C -5.078106 -1.373212 8.109331
C -3.776789 -1.337021 7.629531
H -4.953423 -5.157270 4.116954
H -5.223550 -3.926511 2.868091
H -5.637261 -3.600399 4.588582
H -3.339274 -4.672144 7.043021
H -5.671089 -4.718941 7.827517
H -7.383255 -1.364274 6.670482
H -7.907225 -0.706436 8.249986
H -8.856990 -1.950296 7.430618
H -5.570381 -0.434494 8.373245
H -3.272917 -0.386355 7.540966
C 3.339055 -4.007328 8.116838
O 2.172019 -3.181942 8.072214
C 2.381804 -1.853552 7.849130
O 3.489010 -1.338735 7.727813
C 1.037095 -1.100999 7.796815
C 1.027755 0.285338 7.716382
C -0.258435 1.027599 7.831528
C -0.579420 1.659364 9.048671
C -1.758263 2.404320 9.187583
C -2.636360 2.539136 8.110348
O -3.819245 3.223184 8.121597
C -4.086071 3.962710 9.313522
C -2.312744 1.921514 6.897592
C -1.141475 1.161472 6.754981
H 3.167441 -4.876275 7.470405
H 4.253644 -3.508565 7.780749
H 3.489058 -4.359934 9.145652
H 0.079218 1.581356 9.915023
H -1.958273 2.872009 10.147829
H -3.303144 4.701426 9.524788
H -5.018145 4.513183 9.169736
H -4.222508 3.296138 10.179006
H -2.974784 2.028627 6.042075
H -0.922038 0.701558 5.797826
C 1.635759 6.134769 6.991011
O 2.181411 5.038434 6.256125
C 1.499280 3.862877 6.460975
O 0.507967 3.741114 7.156205
C 2.312206 2.729118 5.864009
C 2.741158 2.902920 4.545363
C 4.134815 2.444212 4.247712
C 5.186955 3.329957 4.548832
C 6.517673 3.002281 4.272042
C 6.808675 1.807490 3.620379
O 8.058387 1.369740 3.286271
C 9.119355 2.290144 3.501832
C 5.764737 0.946379 3.293463
C 4.434847 1.246042 3.605548
H 2.013402 6.109185 8.025373
H 1.977738 7.068717 6.530555
H 0.534241 6.151131 7.001577
H 4.972687 4.295284 5.012752
H 7.282729 3.706753 4.563481
H 8.962301 3.229890 2.957029
H 9.264073 2.489823 4.570224
H 10.036580 1.841783 3.123140
H 5.997743 0.019496 2.762605
H 3.649989 0.562717 3.294539
C 6.531304 5.138531 1.576158
O 5.189822 4.694652 1.840552
C 4.819847 3.624903 1.066027
O 5.571778 3.072881 0.264809
C 3.380655 3.243094 1.284310
C 2.796178 2.369616 0.390432
C 1.334805 2.059638 0.571276
C 0.377234 2.503858 -0.360231
C -0.985246 2.298443 -0.147699
C -1.422174 1.657020 1.005677
O -2.731365 1.463172 1.353116
C -3.695176 2.067192 0.490739
C -0.484886 1.176544 1.908753
C 0.883155 1.345142 1.683324
H 7.250249 4.307538 1.424731
H 6.539349 5.787630 0.691568
H 6.887232 5.723080 2.429996
H 0.669626 3.044046 -1.259458
H -1.670246 2.660464 -0.911443
H -3.685222 1.573766 -0.482626
H -3.529175 3.148353 0.386812
H -4.681544 1.918408 0.930027
H -0.819625 0.686169 2.822101
H 1.583510 0.965741 2.413896
C 7.221339 2.985963 -2.836363
O 6.083503 2.233930 -2.380996
C 5.806502 1.165122 -3.187143
O 6.480659 0.883980 -4.181609
C 4.517353 0.502596 -2.712220
C 3.791989 -0.312808 -3.577798
C 4.514976 -0.791559 -4.792835
C 4.457884 -0.123866 -6.020865
C 5.253271 -0.556441 -7.093723
C 6.123905 -1.644637 -6.953929
O 6.794647 -2.001425 -8.096532
C 7.840944 -2.948478 -7.928527
C 6.190047 -2.308395 -5.732744
C 5.399536 -1.882226 -4.653191
H 7.092714 3.335675 -3.873090
H 8.141067 2.392619 -2.752389
H 7.315100 3.862859 -2.200039
H 3.830891 0.763834 -6.140912
H 5.185768 -0.030676 -8.040356
H 8.306662 -3.107167 -8.908215
H 7.468536 -3.925850 -7.574993
H 8.617949 -2.570728 -7.254135
H 6.819250 -3.168439 -5.571660
H 5.472843 -2.399995 -3.695144
C 1.657990 -5.611577 -4.810732
O 1.231481 -4.314023 -5.220295
C 2.047190 -3.299278 -4.810616
O 2.969079 -3.428296 -4.027519
C 1.593713 -1.990335 -5.438606
C 1.182830 -2.036215 -6.763696
C 1.775242 -3.178524 -7.589523
C 0.971664 -3.824881 -8.535867
C 1.487994 -4.815661 -9.366896
C 2.837650 -5.161673 -9.297436
O 3.463386 -6.096770 -10.069537
C 2.605164 -6.884529 -10.898028
C 3.656220 -4.495069 -8.383935
C 3.134783 -3.506762 -7.551366
H 2.743282 -5.717499 -4.739766
H 1.305014 -6.331964 -5.558803
H 1.175639 -5.836718 -3.858260
H -0.074625 -3.550396 -8.658615
H 0.807571 -5.271000 -10.078994
H 1.876492 -7.445045 -10.296070
H 2.099751 -6.268637 -11.654172
H 3.231650 -7.606304 -11.422263
H 4.715198 -4.727500 -8.331764
H 3.795345 -3.017803 -6.850293
C -2.149973 2.911864 -6.904878
O -1.669463 1.574029 -7.061328
C -2.583763 0.587448 -6.787882
O -3.709485 0.839001 -6.350173
C -2.051391 -0.786618 -7.165679
C -2.995770 -1.796653 -7.223778
C -2.635025 -3.205206 -7.558837
C -1.785914 -3.917064 -6.695302
C -1.599202 -5.286170 -6.871321
C -2.217701 -5.947919 -7.913457
O -1.976532 -7.300851 -7.998817
C -3.169085 -8.034692 -8.215841
C -3.010824 -5.253952 -8.816949
C -3.241082 -3.891772 -8.628939
H -1.331870 3.524990 -6.508081
H -3.015988 3.016195 -6.229796
H -2.420634 3.308478 -7.891044
H -1.313100 -3.411807 -5.852467
H -0.966645 -5.823785 -6.174881
H -3.021965 -9.037860 -7.810542
H -4.048827 -7.608138 -7.717617
H -3.366948 -8.140979 -9.287241
H -3.471981 -5.746022 -9.661637
H -3.890145 -3.366654 -9.331978
C -4.277671 -4.605398 -2.563460
O -4.940208 -3.453470 -3.073942
C -4.704145 -3.234179 -4.414639
O -4.062067 -4.002392 -5.129308
C -5.323273 -1.952804 -4.872051
C -6.185541 -1.457325 -3.996717
C -7.132511 -1.078742 -2.990473
C -8.495081 -1.300356 -3.172042
C -9.374916 -0.993650 -2.134141
C -8.912186 -0.530188 -0.913209
O -9.871266 -0.332023 0.040264
C -9.382644 -0.068566 1.356040
C -7.550527 -0.300986 -0.747614
C -6.659634 -0.579533 -1.783390
H -3.206704 -4.612898 -2.826837
H -4.769708 -5.513361 -2.929146
H -4.356089 -4.579818 -1.473001
H -8.878092 -1.691963 -4.111218
H -10.434607 -1.133253 -2.296419
H -10.230339 -0.093613 2.042876
H -8.663911 -0.825958 1.697336
H -8.941309 0.931489 1.418944
H -7.135534 0.091748 0.168123
H -5.587894 -0.394447 -1.667359
