368
Molecule ID: homopoly_18298
O -2.393555 4.705337 2.899468
C -1.793696 4.116567 3.783736
O -1.369176 4.642646 4.964997
C -1.860822 5.966601 5.240882
C -1.599360 6.285767 6.707513
C -2.242936 7.616102 7.110673
C -2.446696 8.567644 5.929955
C -1.309173 8.443234 4.919724
C -1.215747 7.025722 4.341751
C -1.602695 2.695260 3.665483
C -1.659487 1.404128 3.534359
H -2.952944 5.954634 5.093604
H -1.966033 5.482356 7.358152
H -0.514667 6.339223 6.880273
H -1.625683 8.105539 7.877499
H -3.215694 7.427372 7.574698
H -2.541248 9.600729 6.287149
H -3.396911 8.321994 5.428835
H -1.447977 9.167735 4.109028
H -0.362027 8.701838 5.413685
H -1.711117 7.024378 3.364639
H -0.164339 6.782375 4.137319
H -2.480932 0.891075 4.032912
O 0.435707 -3.026070 -0.001100
C -0.086727 -1.961520 0.334509
O -0.496771 -0.983019 -0.516711
C -0.613667 -1.378963 -1.894876
C 0.414072 -0.689076 -2.782000
C 0.242612 -1.019946 -4.266074
C -1.061519 -1.756435 -4.580387
C -2.246954 -1.127950 -3.856410
C -2.027832 -1.027469 -2.346715
C -0.599652 -1.707044 1.723355
C -0.549993 -2.767549 2.562276
H -0.495243 -2.463404 -2.006440
H 0.313366 0.393331 -2.660998
H 1.429652 -0.936163 -2.451646
H 0.273478 -0.084364 -4.843281
H 1.088844 -1.627403 -4.618218
H -0.969588 -2.807229 -4.274546
H -1.239902 -1.757676 -5.662414
H -2.439595 -0.125854 -4.264463
H -3.152206 -1.719070 -4.047452
H -2.707867 -1.710598 -1.840286
H -2.304809 -0.022924 -2.003746
H -0.055677 -3.688340 2.262108
O -2.466302 -6.318950 3.328682
C -2.689682 -5.340918 2.629638
O -2.505464 -5.228762 1.295385
C -1.860120 -6.340576 0.636873
C -1.294432 -5.806819 -0.686808
C -1.749391 -6.594496 -1.912321
C -1.599120 -8.093649 -1.690321
C -2.346459 -8.594847 -0.456738
C -2.860346 -7.483082 0.445815
C -3.176569 -4.047095 3.178563
C -4.369394 -3.600172 2.731732
H -1.019383 -6.681917 1.256938
H -0.197339 -5.858876 -0.636215
H -1.540608 -4.749084 -0.831008
H -2.794883 -6.357327 -2.139160
H -1.159353 -6.288111 -2.786196
H -0.532970 -8.332888 -1.588356
H -1.950706 -8.630324 -2.579418
H -1.687671 -9.260755 0.114844
H -3.201547 -9.206227 -0.772153
H -3.789559 -7.079854 0.027848
H -3.148559 -7.904265 1.417134
H -4.908751 -4.198807 1.997324
O -4.763460 -2.208036 -0.990225
C -5.480668 -2.183609 -0.004007
O -6.451135 -3.094280 0.266507
C -6.704454 -4.054690 -0.794119
C -5.555654 -5.061813 -0.942762
C -6.044456 -6.337612 -1.618817
C -7.059277 -7.061919 -0.733447
C -7.883692 -6.104319 0.135046
C -8.054162 -4.739335 -0.527054
C -5.409276 -1.104669 1.027059
C -5.251180 0.189772 0.657194
H -6.800041 -3.498917 -1.732497
H -5.127766 -5.289570 0.038606
H -4.746828 -4.628346 -1.541587
H -6.513071 -6.079477 -2.576968
H -5.206703 -7.006148 -1.850586
H -6.533863 -7.774824 -0.082114
H -7.721993 -7.658526 -1.374238
H -8.863941 -6.553834 0.335960
H -7.386804 -5.978166 1.104457
H -8.576654 -4.889125 -1.479619
H -8.692929 -4.105834 0.100598
H -5.147233 0.907990 1.469566
O -5.544395 4.760120 0.397674
C -4.959790 3.774829 0.811978
O -5.043289 3.230328 2.048893
C -6.094887 3.745637 2.893999
C -5.827694 5.186844 3.361542
C -6.509757 5.535989 4.687627
C -7.735032 4.666750 4.936702
C -7.354649 3.189292 5.022756
C -6.202978 2.803734 4.094001
C -4.044267 2.966693 -0.054451
C -2.769863 3.401053 -0.041140
H -7.034567 3.698678 2.332111
H -4.756351 5.384862 3.445397
H -6.194810 5.879086 2.593295
H -6.791053 6.596857 4.683779
H -5.796887 5.400933 5.511479
H -8.241079 4.970594 5.860158
H -8.455365 4.813098 4.119949
H -8.237799 2.581532 4.780294
H -7.083530 2.935413 6.052928
H -5.256731 2.821509 4.655596
H -6.324026 1.768652 3.760028
H -2.523530 4.203032 0.647421
O 0.407632 5.278154 -2.185723
C 1.195523 4.561587 -1.581980
O 2.373091 4.941408 -1.039898
C 2.707532 6.341677 -1.095018
C 2.726973 6.859139 0.347705
C 3.568942 8.113988 0.557990
C 3.832833 8.860648 -0.741096
C 4.542302 7.974322 -1.764729
C 4.083006 6.515035 -1.739729
C 0.872099 3.165361 -1.141297
C 1.740893 2.136080 -1.218827
H 1.972910 6.911263 -1.674709
H 1.691025 7.046236 0.665702
H 3.094639 6.074050 1.019664
H 4.533877 7.828540 0.996747
H 3.076450 8.774826 1.286093
H 2.875505 9.214231 -1.155116
H 4.436558 9.753828 -0.545009
H 4.379673 8.396475 -2.764022
H 5.625222 8.004672 -1.590007
H 4.078559 6.127603 -2.760765
H 4.816031 5.904693 -1.196501
H 1.439997 1.211111 -0.726839
O 6.814520 2.076273 -0.904444
C 6.375644 1.722221 -1.983799
O 6.830652 2.075738 -3.210773
C 7.958622 2.969345 -3.241769
C 9.254354 2.248479 -2.839838
C 10.078326 1.796478 -4.042930
C 10.479664 2.973890 -4.928605
C 9.410482 4.066112 -5.002998
C 8.023351 3.539739 -4.664611
C 5.223836 0.777066 -2.143055
C 5.371355 -0.342646 -2.877986
H 7.769565 3.796200 -2.545571
H 9.868399 2.935842 -2.243157
H 9.053778 1.375668 -2.208222
H 9.503441 1.070705 -4.635414
H 10.983793 1.279475 -3.704755
H 11.414064 3.416872 -4.561743
H 10.701485 2.594294 -5.935310
H 9.667197 4.875067 -4.304942
H 9.409434 4.509140 -6.005817
H 7.730319 2.773664 -5.394313
H 7.281686 4.343166 -4.762749
H 4.510472 -0.990320 -3.035820
O 6.724094 -1.078485 0.399413
C 6.901228 -1.845159 -0.533832
O 6.267375 -3.026475 -0.749195
C 5.503574 -3.536412 0.358091
C 4.186537 -2.778485 0.542976
C 3.340559 -3.429191 1.632094
C 3.051117 -4.887288 1.294527
C 4.348701 -5.671716 1.108615
C 5.245052 -5.016424 0.059960
C 7.963731 -1.679122 -1.561371
C 9.229118 -2.014870 -1.205535
H 6.113825 -3.472938 1.271429
H 3.637027 -2.762373 -0.407372
H 4.363667 -1.728314 0.804531
H 2.403978 -2.879368 1.738292
H 3.852555 -3.370151 2.599772
H 2.460568 -4.938522 0.368969
H 2.437741 -5.348498 2.080948
H 4.114229 -6.696720 0.797572
H 4.876462 -5.736546 2.066793
H 4.769188 -5.104457 -0.926655
H 6.198417 -5.557298 -0.017353
H 10.026184 -1.998169 -1.943846
O 1.384642 0.477326 1.683386
C 0.697167 0.831781 2.624908
O 1.130779 1.566478 3.685299
C 2.541470 1.883619 3.708464
C 2.937448 2.076712 5.175251
C 2.242843 3.287796 5.797797
C 2.510887 4.552566 4.991204
C 2.143852 4.383155 3.518550
C 2.816480 3.161400 2.902459
C -0.773170 0.586926 2.721343
C -1.302498 -0.507784 2.132103
H 3.125747 1.049699 3.302569
H 2.668664 1.184844 5.751092
H 4.023869 2.205066 5.251184
H 2.591307 3.424814 6.829330
H 1.157495 3.113850 5.857751
H 1.942140 5.392910 5.421576
H 3.571170 4.818541 5.072103
H 1.053923 4.298104 3.421028
H 2.435229 5.285336 2.974583
H 2.451566 3.050552 1.873912
H 3.896907 3.335615 2.844967
H -2.383071 -0.647338 2.184089
O -0.509888 -1.063210 5.384283
C -0.416371 -2.227178 5.027361
O 0.374982 -3.182634 5.563383
C 1.313904 -2.762240 6.573315
C 2.341455 -3.897171 6.675925
C 1.707388 -5.186900 7.199586
C 0.994212 -4.961181 8.530748
C -0.016287 -3.821489 8.458200
C 0.620342 -2.539768 7.920035
C -1.145990 -2.817340 3.889742
C -2.343285 -3.389307 4.165615
H 1.816915 -1.850610 6.236640
H 2.770037 -4.091713 5.685460
H 3.165535 -3.590991 7.335888
H 0.985804 -5.571554 6.466510
H 2.481954 -5.956859 7.317595
H 0.488217 -5.885796 8.837454
H 1.738843 -4.733364 9.300751
H -0.856114 -4.115477 7.814406
H -0.432783 -3.627410 9.453173
H 1.355087 -2.170390 8.644696
H -0.160312 -1.777777 7.829958
H -2.720070 -3.401990 5.186250
O -6.330994 -3.080466 5.130944
C -5.484846 -2.361971 4.625384
O -4.753267 -1.400919 5.244549
C -4.962916 -1.278828 6.665519
C -3.697974 -0.672338 7.266569
C -3.858588 -0.440529 8.766185
C -5.060864 0.451762 9.057314
C -6.338028 -0.109887 8.435566
C -6.174438 -0.384577 6.944682
C -5.091314 -2.430491 3.186937
C -5.543206 -1.392822 2.453557
H -5.108438 -2.278078 7.108482
H -3.464050 0.278697 6.768431
H -2.845700 -1.336025 7.078969
H -2.947603 0.016814 9.169623
H -3.989729 -1.405130 9.273124
H -4.874166 1.461275 8.664583
H -5.192395 0.551461 10.141760
H -7.161618 0.595667 8.594128
H -6.609796 -1.039284 8.951170
H -6.065649 0.561205 6.400838
H -7.088657 -0.851171 6.557353
H -6.085045 -0.608570 2.994269
O -5.601222 -0.052410 -2.879894
C -6.033005 0.304067 -1.801443
O -7.336741 0.352872 -1.415151
C -8.328024 0.072473 -2.414545
C -9.639197 0.679420 -1.902108
C -10.820145 0.329647 -2.796551
C -10.949297 -1.177964 -2.985465
C -9.652984 -1.781778 -3.518764
C -8.468785 -1.433564 -2.627327
C -5.211957 0.823920 -0.667657
C -4.656561 2.018476 -0.963198
H -8.051139 0.569818 -3.355074
H -9.530698 1.767995 -1.829967
H -9.827259 0.322111 -0.880803
H -11.740762 0.730022 -2.360339
H -10.694496 0.810707 -3.775725
H -11.202040 -1.647426 -2.024472
H -11.771398 -1.393406 -3.674962
H -9.471367 -1.411448 -4.535278
H -9.754383 -2.871685 -3.588173
H -8.585475 -1.924824 -1.651868
H -7.551496 -1.834133 -3.077957
H -4.777243 2.414968 -1.973702
O -1.349480 2.468052 -3.235961
C -1.849411 3.227987 -2.424115
O -2.675218 4.272986 -2.683523
C -2.807548 4.659635 -4.055934
C -3.302529 6.109089 -4.065194
C -3.548567 6.617366 -5.479876
C -4.502527 5.703142 -6.247319
C -4.029332 4.249356 -6.221063
C -3.803414 3.762731 -4.792647
C -1.654837 3.120455 -0.945429
C -0.403661 3.030419 -0.435759
H -1.825007 4.621699 -4.549633
H -4.228335 6.192649 -3.476341
H -2.570255 6.752462 -3.564568
H -2.590587 6.669756 -6.015281
H -3.959104 7.634688 -5.452112
H -4.582793 6.045889 -7.287931
H -5.508788 5.769833 -5.805195
H -3.088362 4.168097 -6.781588
H -4.765987 3.613681 -6.726676
H -4.758222 3.736481 -4.247515
H -3.440861 2.729788 -4.813982
H -0.279873 3.012159 0.648763
O 4.262519 3.648279 -3.167780
C 3.332370 2.865390 -3.106943
O 2.362416 2.675406 -4.033403
C 2.431599 3.434749 -5.259634
C 1.261506 2.954656 -6.122550
C 1.134142 3.726286 -7.433658
C 1.299422 5.237466 -7.277854
C 1.289687 5.675044 -5.820555
C 2.371441 4.954017 -5.022500
C 3.038482 2.027308 -1.906045
C 3.943044 1.099657 -1.523486
H 3.373476 3.169744 -5.761536
H 0.328807 3.047380 -5.550983
H 1.364492 1.885429 -6.333027
H 0.154818 3.506694 -7.878286
H 1.884659 3.370704 -8.149935
H 0.507274 5.755460 -7.830216
H 2.246155 5.545828 -7.736918
H 0.303702 5.469239 -5.380346
H 1.445743 6.758611 -5.755185
H 3.341740 5.380319 -5.301765
H 2.232492 5.192898 -3.967666
H 3.719959 0.469247 -0.658539
O 7.797457 -0.657949 -5.615033
C 6.725902 -0.688185 -5.021159
O 5.502230 -0.727669 -5.613553
C 5.528984 -0.774139 -7.050306
C 5.655038 0.654792 -7.600535
C 4.954312 0.803571 -8.941992
C 3.455134 0.519884 -8.818129
C 3.115199 -0.497342 -7.725339
C 4.252708 -1.485134 -7.513009
C 6.588781 -0.804472 -3.531292
C 7.683841 -1.333323 -2.941369
H 6.374510 -1.386627 -7.388421
H 5.245820 1.386137 -6.886342
H 6.716776 0.909876 -7.712711
H 5.106422 1.810173 -9.345786
H 5.394352 0.105016 -9.662435
H 2.922173 1.453442 -8.596540
H 3.073627 0.174028 -9.788149
H 2.916198 0.028291 -6.781803
H 2.196258 -1.029186 -7.992574
H 3.948777 -2.242592 -6.781891
H 4.450070 -1.998215 -8.463473
H 8.513442 -1.579016 -3.606582
O 10.690617 -4.497143 -0.900573
C 10.122282 -4.002650 0.057684
O 9.759277 -4.625593 1.200295
C 10.079172 -6.029310 1.348652
C 9.570809 -6.879635 0.163048
C 9.050333 -8.238813 0.604210
C 7.852931 -8.082728 1.539721
C 7.992267 -6.889326 2.494150
C 9.452527 -6.475374 2.681758
C 9.623293 -2.599024 0.062808
C 9.695772 -1.858504 1.135397
H 11.173681 -6.106787 1.439892
H 10.382582 -7.028737 -0.555488
H 8.774615 -6.353374 -0.380587
H 9.848819 -8.791751 1.117977
H 8.761536 -8.839315 -0.267583
H 7.725204 -9.010667 2.113957
H 6.933830 -7.964967 0.949234
H 7.427742 -6.036111 2.091238
H 7.534814 -7.136841 3.458900
H 9.499260 -5.661504 3.414886
H 10.011854 -7.325625 3.088971
H 9.661519 -1.272324 2.025261
