288
Molecule ID: homopoly_637542
O 8.074113 -3.926869 -4.838908
C 8.326512 -3.458031 -3.739986
O 8.811747 -4.196562 -2.727870
C 8.200998 -2.053648 -3.471297
C 8.314714 -0.753231 -3.444610
C 9.645015 -0.272428 -3.922758
C 9.906037 -0.188130 -5.297866
C 11.136279 0.292787 -5.751429
C 12.104553 0.691389 -4.836347
O 13.291221 1.148595 -5.330766
C 11.854010 0.622933 -3.468110
C 10.629611 0.133115 -3.012255
H 8.859352 -5.091493 -3.118895
H 9.152024 -0.490326 -6.023182
H 11.338430 0.343988 -6.815190
H 13.835604 1.445077 -4.585114
H 12.602216 0.933203 -2.745147
H 10.442183 0.085208 -1.942436
O 5.019302 -1.654863 -5.264585
C 5.185653 -2.095319 -4.140163
O 5.456392 -3.399426 -3.935707
C 5.176157 -1.300684 -2.875571
C 4.328989 -1.687063 -1.876058
C 3.378618 -2.832739 -2.113086
C 2.256052 -2.636291 -2.938963
C 1.311728 -3.646030 -3.106881
C 1.473375 -4.852707 -2.439707
O 0.491785 -5.783959 -2.579564
C 2.574910 -5.076000 -1.623608
C 3.523335 -4.063606 -1.455316
H 5.509783 -3.762353 -4.843828
H 2.095820 -1.675262 -3.426848
H 0.433845 -3.472069 -3.719364
H 0.517154 -6.384391 -1.814308
H 2.701289 -6.018236 -1.099020
H 4.370677 -4.242184 -0.800214
O 3.566049 1.895729 0.634313
C 4.191532 1.413798 1.572849
O 4.605237 2.225240 2.547355
C 4.566905 -0.025699 1.706937
C 4.635618 -0.644673 2.931904
C 5.000528 -2.097526 3.009682
C 4.158459 -3.077566 2.460872
C 4.446497 -4.439607 2.593120
C 5.596049 -4.828514 3.262862
O 5.898111 -6.146497 3.439943
C 6.467306 -3.884562 3.783340
C 6.166796 -2.521648 3.661464
H 4.107247 3.061957 2.401910
H 3.247315 -2.785666 1.943829
H 3.756023 -5.171539 2.185195
H 5.137170 -6.679485 3.158751
H 7.377030 -4.195153 4.288172
H 6.872886 -1.804364 4.068130
O 1.621350 -2.662324 3.939095
C 2.181203 -1.843892 4.645006
O 3.021350 -2.263871 5.612439
C 2.039179 -0.335820 4.657118
C 0.753608 0.146652 4.685713
C -0.379300 -0.819317 4.475858
C -0.813210 -1.127442 3.183324
C -1.813715 -2.085692 2.985434
C -2.361591 -2.744661 4.076106
O -3.281688 -3.735783 3.917620
C -1.964658 -2.436310 5.368409
C -0.976686 -1.476283 5.564407
H 3.113407 -3.221566 5.435108
H -0.362332 -0.651137 2.316468
H -2.138032 -2.303031 1.970537
H -3.191326 -4.056569 3.004143
H -2.396026 -2.960152 6.216931
H -0.647599 -1.281382 6.580817
O 2.011092 3.079005 2.694639
C 1.016738 2.545988 2.223759
O 1.015762 1.916630 1.032767
C -0.324735 2.482165 2.874831
C -1.413177 2.859228 2.122612
C -2.799873 2.697976 2.660884
C -3.612808 3.805905 2.959070
C -4.918507 3.632770 3.432741
C -5.426027 2.345639 3.588090
O -6.693824 2.130743 4.043962
C -4.652237 1.237428 3.278946
C -3.348023 1.418982 2.825723
H 1.914744 2.064186 0.637175
H -3.227115 4.816273 2.847375
H -5.523615 4.504515 3.658824
H -6.983313 2.929809 4.512190
H -5.052946 0.233658 3.397717
H -2.762807 0.541862 2.571231
O -1.745641 0.338717 0.320040
C -1.564889 0.985678 -0.704909
O -0.701459 0.548056 -1.630079
C -2.255196 2.282552 -0.967329
C -3.317884 2.306801 -1.843014
C -4.317772 3.394736 -1.649665
C -5.025616 3.445912 -0.435691
C -5.980710 4.439519 -0.200445
C -6.225638 5.389289 -1.184091
O -7.157940 6.367957 -1.006626
C -5.534604 5.363930 -2.389667
C -4.583052 4.365803 -2.624762
H -0.513646 1.159188 -2.383475
H -4.863106 2.686324 0.324942
H -6.517285 4.443917 0.741375
H -7.663422 6.167920 -0.199021
H -5.735140 6.118911 -3.144249
H -4.053982 4.367288 -3.575048
O -7.023491 2.011057 -2.195053
C -6.339485 1.622210 -3.125853
O -6.289811 2.329464 -4.276208
C -5.530317 0.355749 -3.263939
C -6.323601 -0.771068 -3.306204
C -7.688634 -0.681976 -2.674328
C -7.794707 -0.500700 -1.279225
C -9.037085 -0.339827 -0.665363
C -10.189000 -0.380730 -1.438803
O -11.421995 -0.230704 -0.877841
C -10.113001 -0.570590 -2.814140
C -8.866400 -0.711101 -3.432244
H -6.852648 3.105380 -4.083221
H -6.897331 -0.459859 -0.663670
H -9.078909 -0.179860 0.408568
H -11.303440 0.015203 0.056418
H -11.022747 -0.587296 -3.408821
H -8.842950 -0.817078 -4.515521
O -8.183122 -4.397413 -2.690212
C -7.344814 -3.858059 -1.985079
O -7.706887 -3.269978 -0.841270
C -5.880272 -3.709122 -2.335015
C -4.950325 -4.174195 -1.446201
C -5.428918 -4.527975 -0.068538
C -5.876034 -5.824327 0.237838
C -6.281189 -6.129909 1.538521
C -6.232791 -5.149393 2.525156
O -6.579481 -5.503710 3.798483
C -5.809610 -3.857956 2.235636
C -5.386146 -3.551368 0.943592
H -8.686003 -3.369882 -0.826935
H -5.921604 -6.588808 -0.531357
H -6.630032 -7.128347 1.781661
H -6.287093 -4.797413 4.399105
H -5.785504 -3.088257 3.000412
H -5.047013 -2.544813 0.720605
O 8.193645 2.290625 -2.492345
C 7.635376 1.625457 -3.350084
O 7.391428 2.103907 -4.584984
C 7.199241 0.199222 -3.225539
C 5.867137 0.012691 -2.955184
C 4.987097 1.231440 -2.968317
C 5.069128 2.223083 -1.976828
C 4.318733 3.398064 -2.078799
C 3.476134 3.581655 -3.165484
O 2.755683 4.727522 -3.310347
C 3.351079 2.604134 -4.142596
C 4.109087 1.433425 -4.045619
H 7.713954 3.027010 -4.543504
H 5.747355 2.107076 -1.134741
H 4.423546 4.158096 -1.310716
H 2.769631 5.198570 -2.461701
H 2.678973 2.754127 -4.981319
H 4.024075 0.694653 -4.843067
O 2.116744 0.209131 -1.415157
C 2.671134 -0.425716 -0.533284
O 2.005839 -0.788603 0.578882
C 4.076175 -0.934087 -0.607969
C 4.945988 -0.710622 0.422326
C 6.389123 -1.104496 0.294678
C 7.381209 -0.117185 0.437314
C 8.734752 -0.447865 0.390197
C 9.113327 -1.769951 0.208581
O 10.444953 -2.050804 0.134304
C 8.155151 -2.771071 0.090389
C 6.800902 -2.435688 0.133699
H 1.112828 -0.401067 0.421731
H 7.116501 0.925338 0.601282
H 9.488486 0.328150 0.491190
H 10.543230 -2.977915 -0.144533
H 8.439876 -3.811915 -0.025802
H 6.071303 -3.234614 0.081738
O 6.628350 1.291713 4.184031
C 5.813093 0.583260 4.745558
O 6.118971 -0.000608 5.924024
C 4.487564 0.104900 4.211916
C 3.335696 0.377067 4.903687
C 3.489254 1.289193 6.073895
C 3.590019 0.767859 7.374345
C 3.867753 1.611282 8.453003
C 4.028925 2.974923 8.230668
O 4.326168 3.826558 9.251788
C 3.900806 3.513638 6.957787
C 3.629057 2.671430 5.875617
H 6.983403 0.394723 6.154681
H 3.498627 -0.304502 7.539253
H 3.972471 1.185561 9.445252
H 4.367788 3.317907 10.078801
H 4.022149 4.579668 6.799605
H 3.543980 3.101167 4.882622
O 0.646081 2.813854 7.203352
C 0.461965 1.757463 6.627532
O 0.370680 0.636502 7.368896
C 0.338382 1.507852 5.140368
C -0.283432 2.456242 4.371892
C -0.795970 3.697849 5.041129
C -1.972475 3.668407 5.808560
C -2.453556 4.838198 6.398122
C -1.758316 6.031176 6.227634
O -2.191810 7.192736 6.795029
C -0.586528 6.075197 5.480057
C -0.101477 4.908579 4.890853
H 0.529712 0.987479 8.269784
H -2.515996 2.740248 5.942484
H -3.373086 4.804155 6.972865
H -2.900532 6.980830 7.425435
H -0.058412 7.011478 5.353320
H 0.825018 4.950120 4.323338
O -1.090702 5.916561 1.936204
C -0.598767 5.037188 1.246695
O 0.645948 5.142219 0.753266
C -1.235829 3.713739 0.915762
C -1.671225 3.533716 -0.365926
C -1.442779 4.692583 -1.311613
C -0.508418 4.593526 -2.348891
C -0.336807 5.653351 -3.249008
C -1.074081 6.820323 -3.097654
O -0.872392 7.826433 -3.997674
C -1.981820 6.957127 -2.058816
C -2.169628 5.892257 -1.171264
H 0.928971 6.034999 1.050852
H 0.097834 3.699668 -2.469484
H 0.371746 5.556622 -4.067339
H -1.402652 8.594930 -3.733549
H -2.564287 7.863786 -1.931458
H -2.903601 6.007313 -0.374285
O -0.942360 1.789430 -3.755537
C -2.126391 1.997628 -3.975796
O -2.540103 2.841925 -4.935212
C -3.268756 1.511354 -3.110101
C -4.116772 0.602668 -3.696813
C -3.533607 -0.054722 -4.904196
C -2.492695 -0.986795 -4.756121
C -1.782163 -1.450363 -5.867445
C -2.130653 -1.001935 -7.135577
O -1.468867 -1.427156 -8.249064
C -3.168987 -0.091736 -7.306883
C -3.856898 0.388841 -6.192258
H -1.726912 3.128944 -5.405770
H -2.196828 -1.328312 -3.762487
H -0.965033 -2.153116 -5.720882
H -0.683689 -1.925072 -7.972240
H -3.435792 0.256792 -8.301523
H -4.642195 1.131868 -6.332307
O -6.303770 -0.964325 -6.343336
C -6.555799 -1.843245 -5.540947
O -7.525324 -2.740845 -5.807831
C -6.022664 -1.984174 -4.130175
C -5.689972 -3.262553 -3.741288
C -5.399403 -4.300840 -4.808886
C -5.998341 -5.571107 -4.786342
C -5.743357 -6.503347 -5.799533
C -4.895313 -6.178305 -6.850161
O -4.708882 -7.105541 -7.832987
C -4.277990 -4.936655 -6.896298
C -4.529986 -4.011016 -5.881398
H -7.798197 -2.550576 -6.729288
H -6.698180 -5.852435 -4.005171
H -6.228734 -7.473664 -5.776439
H -4.215571 -6.689580 -8.558220
H -3.613759 -4.661605 -7.708794
H -4.053066 -3.041070 -5.948278
O -2.758582 -6.132441 -3.138377
C -2.956851 -4.943757 -2.922620
O -2.422648 -3.999548 -3.714276
C -3.499919 -4.348582 -1.688588
C -2.680600 -4.503257 -0.670153
C -1.734868 -4.818739 0.353353
C -0.506638 -4.153003 0.375344
C 0.439555 -4.476352 1.343258
C 0.142384 -5.440653 2.296533
O 1.071689 -5.723988 3.250422
C -1.076831 -6.107611 2.293275
C -2.019737 -5.798042 1.309345
H -1.994594 -4.546276 -4.407389
H -0.286501 -3.373743 -0.353732
H 1.390098 -3.955296 1.366986
H 0.631626 -5.552556 4.104017
H -1.301055 -6.866191 3.038716
H -2.967052 -6.331629 1.299518
