752
Molecule ID: homopoly_168313
C -0.737933 1.584190 2.238009
C -1.021624 1.085700 1.033508
C -0.063440 0.508987 0.070908
C 1.311753 0.414159 0.320784
C 2.174218 -0.144641 -0.634016
C 1.673062 -0.613229 -1.845078
C 0.305633 -0.523803 -2.104366
C -0.550323 0.032979 -1.151877
C -0.827413 -7.137757 6.439880
C -1.057132 -5.882657 7.263096
C -1.459453 -6.210395 8.701441
C -1.621662 -4.912205 9.491281
C -2.137967 -5.083821 10.943712
C -3.576517 -5.671433 10.940574
C -3.585130 -7.109665 11.457400
C -2.122723 -3.732499 11.698894
O -2.479742 -2.694641 10.788969
C -3.739017 -2.193442 10.800386
O -4.509862 -2.065827 11.727170
C -3.993128 -1.675059 9.479756
C -3.762415 -1.491100 8.204181
H 0.267097 1.617346 2.648474
H -1.533374 1.984483 2.862459
H -2.062987 1.097551 0.711028
H 1.743988 0.766627 1.250276
H 3.236842 -0.211062 -0.425683
H 2.340839 -1.045284 -2.583001
H -0.090666 -0.887174 -3.046064
H -1.614996 0.090004 -1.381808
H -0.462434 -6.872139 5.444086
H -1.753132 -7.701863 6.322343
H -0.089014 -7.787681 6.918569
H -1.848348 -5.284827 6.784561
H -0.145550 -5.269173 7.248630
H -2.398092 -6.768270 8.686652
H -0.700686 -6.846193 9.169625
H -2.316465 -4.266803 8.936398
H -0.657927 -4.386794 9.522272
H -1.467439 -5.757019 11.493054
H -4.231728 -5.090545 11.595420
H -4.020538 -5.636500 9.936504
H -3.256643 -7.104549 12.511624
H -4.608262 -7.519129 11.414958
H -2.915924 -7.771711 10.885040
H -2.738661 -3.738998 12.607510
H -1.094218 -3.505564 12.020142
H -2.974081 -2.206416 7.894607
C -0.736270 1.586418 2.243523
C -1.024417 1.083540 1.027753
C -0.062417 0.508832 0.070895
C 1.311304 0.414379 0.321118
C 2.175907 -0.144521 -0.633175
C 1.670767 -0.613266 -1.845918
C 0.308205 -0.523940 -2.103802
C -0.551915 0.033390 -1.151503
C -4.985227 -9.924098 2.201795
C -4.973980 -8.942536 3.353158
C -5.182285 -7.508542 2.870179
C -5.272504 -6.554349 4.068348
C -5.300182 -5.045633 3.731691
C -6.431144 -4.721593 2.726159
C -6.454399 -3.280395 2.230065
C -5.436307 -4.281160 5.066492
O -5.429954 -2.874154 4.894769
C -4.311774 -2.220258 5.299530
O -3.229217 -2.735017 5.554743
C -4.591983 -0.742714 5.463780
C -5.881475 -0.342369 5.501804
H 0.266223 1.617475 2.648457
H -1.533292 1.984151 2.861752
H -2.062080 1.097400 0.710993
H 1.743812 0.766606 1.250160
H 3.236097 -0.210933 -0.425634
H 2.341230 -1.045309 -2.582901
H -0.090702 -0.887312 -3.046370
H -1.614363 0.089919 -1.381796
H -5.960927 -9.953672 1.716474
H -4.764719 -10.928057 2.568619
H -4.236680 -9.661382 1.453184
H -5.761964 -9.214100 4.064530
H -4.022309 -9.008098 3.887557
H -6.108663 -7.456139 2.292215
H -4.360644 -7.200212 2.217853
H -4.409074 -6.735258 4.727959
H -6.168740 -6.811252 4.649398
H -4.355957 -4.773888 3.254131
H -7.410924 -4.967656 3.170651
H -6.322751 -5.354055 1.830984
H -7.020292 -3.221492 1.297874
H -6.953350 -2.634927 2.950885
H -5.446802 -2.912192 2.045453
H -6.393436 -4.543260 5.534223
H -4.652650 -4.615631 5.760413
H -6.695766 -1.076352 5.464304
C -0.737153 1.585370 2.240899
C -1.022865 1.084590 1.030612
C -0.063966 0.509056 0.070878
C 1.312120 0.414236 0.321074
C 2.174734 -0.144248 -0.632963
C 1.672643 -0.613621 -1.846083
C 0.306031 -0.523563 -2.103694
C -0.550109 0.033092 -1.151558
C -11.609424 6.646079 0.312756
C -11.618247 5.130296 0.308628
C -11.127113 4.525160 -1.001625
C -9.699097 4.910723 -1.434942
C -8.555486 3.985054 -0.952100
C -7.175341 4.562542 -1.325658
C -6.961544 4.716622 -2.822827
C -8.611161 3.691122 0.562687
O -7.498481 2.869369 0.910614
C -7.723470 1.898501 1.825152
O -8.760885 1.723305 2.467793
C -6.508609 1.063762 1.998622
C -5.761090 0.632470 0.950234
H 0.266665 1.617408 2.648468
H -1.533176 1.984251 2.862015
H -2.062490 1.097462 0.710988
H 1.743842 0.766485 1.249900
H 3.236779 -0.211087 -0.425752
H 2.340821 -1.045224 -2.582857
H -0.090771 -0.887364 -3.046513
H -1.615016 0.089987 -1.381862
H -12.029552 7.051226 -0.613943
H -12.201044 7.027387 1.152932
H -10.591765 7.039737 0.434018
H -11.042057 4.762902 1.159839
H -12.637650 4.782115 0.468407
H -11.215348 3.435097 -0.968926
H -11.805657 4.858528 -1.796974
H -9.470524 5.944620 -1.163693
H -9.689382 4.879761 -2.532074
H -8.660846 3.032360 -1.467636
H -7.034794 5.539104 -0.840067
H -6.377905 3.912959 -0.949222
H -5.955245 5.091362 -3.013922
H -7.661659 5.421977 -3.260570
H -7.061836 3.758793 -3.328542
H -9.552077 3.178502 0.797308
H -8.559747 4.619422 1.134954
H -4.897591 0.001750 1.189423
C -0.737449 1.585664 2.241450
C -1.022290 1.083917 1.029304
C -0.064692 0.510133 0.073029
C 1.313973 0.413201 0.319389
C 2.172426 -0.143862 -0.632875
C 1.670593 -0.612935 -1.845239
C 0.308904 -0.523173 -2.101861
C -0.551568 0.032215 -1.154002
C 3.543835 -3.251370 1.780357
C 2.278596 -2.503960 1.395760
C 1.586026 -1.901127 2.611440
C 0.272096 -1.173712 2.287377
C -0.820056 -1.998847 1.566052
C -1.109672 -3.332199 2.286235
C -1.926245 -4.306406 1.438949
C -2.103288 -1.151878 1.466054
O -1.971586 -0.040855 0.564926
C -2.727724 -0.146627 -0.547391
O -3.130054 -1.209405 -1.031027
C -3.392501 1.139899 -0.925275
C -2.921624 2.399006 -1.056760
H 0.266673 1.617494 2.648653
H -1.533362 1.984183 2.861802
H -2.062995 1.097400 0.710685
H 1.743560 0.766847 1.250610
H 3.237831 -0.210934 -0.425054
H 2.341770 -1.045575 -2.583312
H -0.090972 -0.887681 -3.047284
H -1.614312 0.089936 -1.381742
H 4.048369 -3.623308 0.885214
H 3.307458 -4.110187 2.416542
H 4.238989 -2.603381 2.322752
H 2.535644 -1.700050 0.696887
H 1.611541 -3.199251 0.872941
H 1.409018 -2.669367 3.371613
H 2.261573 -1.173698 3.077767
H -0.132243 -0.789979 3.233321
H 0.508196 -0.290060 1.675093
H -0.466030 -2.213131 0.554528
H -0.178745 -3.849536 2.526895
H -1.623410 -3.149169 3.236429
H -2.934487 -3.932753 1.227114
H -1.420599 -4.515815 0.494061
H -2.042594 -5.252945 1.981066
H -2.347765 -0.727970 2.448031
H -2.968876 -1.776497 1.203584
H -3.680710 3.130715 -1.329371
C -0.737921 1.585418 2.240746
C -1.021729 1.083961 1.029590
C -0.064938 0.510317 0.073356
C 1.314734 0.412969 0.319127
C 2.171450 -0.143712 -0.632870
C 1.670977 -0.612905 -1.845044
C 0.308741 -0.522972 -2.101470
C -0.551396 0.031914 -1.154613
C -1.910026 3.650499 4.651509
C -3.153499 3.441521 3.794403
C -3.721335 4.730356 3.201644
C -2.724639 5.454944 2.291309
C -3.340999 6.610582 1.464210
C -3.859461 7.726451 2.390521
C -4.457300 8.922371 1.663601
C -2.303012 7.139347 0.443130
O -1.916452 6.066966 -0.436538
C -0.944289 6.360486 -1.359495
O -0.441744 7.459807 -1.532953
C -0.564282 5.123226 -2.119328
C 0.528832 5.206548 -2.916621
H 0.266618 1.617581 2.648831
H -1.533657 1.984213 2.861770
H -2.063143 1.097393 0.710617
H 1.743333 0.766947 1.250757
H 3.238071 -0.210853 -0.424795
H 2.341973 -1.045580 -2.583254
H -0.090801 -0.887727 -3.047329
H -1.614224 0.089867 -1.381866
H -1.580459 2.697244 5.076389
H -2.116013 4.341535 5.469150
H -1.079543 4.054153 4.066643
H -2.927507 2.729906 2.999670
H -3.927669 2.976339 4.416609
H -4.033906 5.391919 4.023910
H -4.621173 4.470370 2.629115
H -2.295462 4.725416 1.612483
H -1.906856 5.860300 2.892568
H -4.187493 6.197044 0.893490
H -4.636204 7.314247 3.044609
H -3.048732 8.067859 3.042273
H -3.669185 9.509308 1.172978
H -5.191807 8.608748 0.915354
H -4.949153 9.581898 2.382998
H -1.421763 7.524378 0.973406
H -2.732379 7.937695 -0.172681
H 1.080057 6.150091 -2.940003
C -0.737138 1.585349 2.240857
C -1.022868 1.084534 1.030487
C -0.064084 0.509065 0.070861
C 1.313237 0.413834 0.320554
C 2.172311 -0.144441 -0.634205
C 1.673680 -0.613050 -1.844466
C 0.305600 -0.523903 -2.104595
C -0.550247 0.033048 -1.151702
C 4.321488 0.553377 4.905036
C 5.460278 0.825914 3.929584
C 4.978030 0.771128 2.481907
C 6.094501 1.150237 1.503331
C 5.775069 0.877152 0.020040
C 5.824337 -0.638023 -0.276905
C 5.691004 -0.974542 -1.748708
C 4.419055 1.478631 -0.373245
O 4.384056 1.726942 -1.789127
C 3.148706 2.065199 -2.229454
O 2.127094 2.055441 -1.553718
C 3.241895 2.743324 -3.566503
C 4.003758 2.086608 -4.475092
H 0.266593 1.617498 2.648646
H -1.533425 1.984228 2.861879
H -2.062457 1.097427 0.710921
H 1.743736 0.766704 1.250354
H 3.237583 -0.211014 -0.425320
H 2.340910 -1.045261 -2.582911
H -0.090487 -0.887148 -3.045939
H -1.614855 0.089959 -1.381868
H 3.918257 -0.452619 4.759624
H 4.682076 0.625983 5.928258
H 3.506372 1.278189 4.766070
H 5.893576 1.806977 4.143695
H 6.244693 0.080172 4.079411
H 4.613596 -0.239496 2.270371
H 4.120366 1.447582 2.353387
H 6.317785 2.211429 1.625829
H 7.009661 0.610496 1.763763
H 6.562941 1.364403 -0.579777
H 6.781408 -1.039001 0.085189
H 5.029158 -1.151857 0.271265
H 5.874369 -2.042432 -1.897291
H 4.678211 -0.767205 -2.117425
H 6.410449 -0.408362 -2.348596
H 4.269559 2.435573 0.132809
H 3.618616 0.794051 -0.088934
H 4.390512 1.137956 -4.113110
C -0.736998 1.584783 2.239650
C -1.023255 1.084797 1.030942
C -0.063359 0.509102 0.071178
C 1.312383 0.414002 0.320636
C 2.175306 -0.143887 -0.631970
C 1.670839 -0.613566 -1.846564
C 0.308330 -0.523179 -2.102071
C -0.550516 0.032810 -1.152329
C 4.418949 7.866510 -2.780563
C 4.627742 7.492552 -4.240051
C 6.096498 7.219252 -4.570791
C 6.507922 5.795253 -4.156775
C 7.940407 5.404568 -4.604657
C 9.043870 6.309530 -4.019539
C 9.201580 6.226153 -2.505877
C 8.231028 3.908442 -4.302448
O 7.323315 3.082312 -5.044504
C 7.553362 1.760107 -4.855935
O 8.447385 1.287520 -4.153845
C 6.493717 0.921810 -5.557710
C 6.624862 -0.403787 -5.321135
H 0.265261 1.617524 2.648266
H -1.534360 1.984284 2.861705
H -2.062174 1.097205 0.710521
H 1.743843 0.766751 1.250489
H 3.236696 -0.210889 -0.425338
H 2.341508 -1.045282 -2.582750
H -0.090691 -0.887576 -3.046960
H -1.614723 0.089951 -1.381852
H 4.379170 8.954578 -2.656430
H 5.215711 7.483108 -2.136250
H 3.464463 7.460557 -2.428515
H 4.269772 8.314043 -4.867628
H 4.019194 6.618242 -4.492519
H 6.238690 7.311334 -5.652538
H 6.739418 7.961961 -4.077753
H 6.411780 5.659112 -3.069202
H 5.804818 5.085436 -4.615691
H 7.968605 5.523161 -5.698948
H 10.003992 6.045684 -4.476260
H 8.850248 7.349418 -4.296958
H 9.928866 6.962965 -2.164573
H 8.269347 6.418035 -1.978631
H 9.572818 5.242720 -2.206753
H 8.095322 3.714932 -3.228913
H 9.260579 3.669083 -4.598327
H 7.482105 -0.665835 -4.692148
C -0.737533 1.586051 2.242283
C -1.022222 1.083621 1.028669
C -0.065432 0.510137 0.072790
C 1.314582 0.413236 0.319672
C 2.172093 -0.143842 -0.632944
C 1.671733 -0.613234 -1.845523
C 0.307591 -0.523137 -2.102221
C -0.550726 0.032237 -1.153670
C -1.355254 -8.736620 -2.887170
C -0.272403 -8.669933 -3.950928
C 1.124232 -8.615704 -3.320554
C 2.193758 -8.563488 -4.419642
C 3.395926 -7.629581 -4.169503
C 4.325624 -8.122994 -3.029703
C 3.875549 -7.847943 -1.605806
C 2.969751 -6.158110 -4.038594
O 4.158124 -5.356757 -4.010018
C 4.374757 -4.491243 -5.042425
O 3.561446 -4.121539 -5.866863
C 5.823049 -4.119670 -5.022437
C 6.624745 -5.183452 -4.824227
H 0.266806 1.617485 2.648679
H -1.533131 1.984150 2.861804
H -2.062988 1.097463 0.710825
H 1.743524 0.766750 1.250385
H 3.237847 -0.210994 -0.425183
H 2.341422 -1.045442 -2.583135
H -0.090860 -0.887602 -3.047069
H -1.614618 0.089951 -1.381808
H -1.073437 -8.234383 -1.958927
H -2.253720 -8.240879 -3.262074
H -1.609531 -9.777369 -2.669683
H -0.360633 -9.534982 -4.620052
H -0.420752 -7.768969 -4.569351
H 1.288038 -9.495187 -2.677338
H 1.174974 -7.721831 -2.683010
H 1.738887 -8.239176 -5.367500
H 2.557451 -9.578341 -4.611272
H 4.016660 -7.700432 -5.079795
H 4.476679 -9.205072 -3.142217
H 5.307269 -7.656662 -3.167886
H 2.958674 -8.390160 -1.341946
H 4.650210 -8.186258 -0.910263
H 3.714427 -6.776978 -1.418214
H 2.420759 -5.969941 -3.120439
H 2.312920 -5.878781 -4.866486
H 6.168722 -6.155267 -4.895197
C -0.737631 1.583829 2.237303
C -1.022058 1.086218 1.034516
C -0.061767 0.508880 0.071235
C 1.309799 0.413717 0.319149
C 2.176703 -0.143766 -0.631233
C 1.670918 -0.614222 -1.848009
C 0.307049 -0.523202 -2.102553
C -0.551163 0.032841 -1.152463
C 1.949257 -3.412634 10.970649
C 2.494398 -2.046537 11.362589
C 1.455026 -0.922780 11.302530
C 1.102965 -0.544031 9.855431
C 0.532304 0.882633 9.730864
C 0.728115 1.439724 8.308816
C 2.180881 1.746895 7.983866
C -0.954851 0.962869 10.131082
O -1.797810 0.144636 9.300133
C -2.505598 0.771015 8.308052
O -2.437322 1.949459 8.002565
C -3.362882 -0.217237 7.598273
C -3.695997 0.067225 6.310435
H 0.267775 1.617238 2.648459
H -1.533121 1.984622 2.862844
H -2.063079 1.097614 0.711136
H 1.744350 0.766726 1.250620
H 3.235811 -0.211106 -0.426127
H 2.340565 -1.045106 -2.582699
H -0.091155 -0.887486 -3.046923
H -1.614907 0.090036 -1.381704
H 2.775523 -4.122342 10.873633
H 1.283564 -3.781711 11.754076
H 1.398617 -3.389241 10.027643
H 3.335690 -1.794793 10.710084
H 2.893198 -2.107462 12.383869
H 0.544417 -1.203405 11.854296
H 1.885264 -0.053624 11.813179
H 1.991921 -0.647232 9.240116
H 0.386802 -1.276095 9.453430
H 1.083744 1.540126 10.410581
H 0.320654 0.743339 7.558212
H 0.169325 2.380808 8.218878
H 2.230492 2.313671 7.046605
H 2.644354 2.344263 8.771241
H 2.767396 0.826737 7.846332
H -1.279407 2.004241 10.136781
H -1.073624 0.597733 11.144791
H -3.348379 0.984497 5.845646
C -0.737272 1.586152 2.242594
C -1.022538 1.083433 1.028143
C -0.064900 0.510236 0.073189
C 1.314336 0.413122 0.319334
C 2.172032 -0.143806 -0.632884
C 1.670716 -0.612923 -1.845170
C 0.308756 -0.523187 -2.101942
C -0.551620 0.032193 -1.154067
C -2.149672 5.061428 8.829919
C -3.443503 5.808999 9.115081
C -4.702485 4.996085 8.807877
C -4.953849 4.871916 7.300021
C -6.440892 4.682403 6.884190
C -7.410170 5.722747 7.478958
C -7.000765 7.161577 7.193730
C -6.980182 3.269888 7.188384
O -6.343482 2.192981 6.453519
C -6.637319 2.116820 5.122332
O -7.158211 3.001109 4.455612
C -6.239082 0.779824 4.587120
C -6.204654 0.433585 3.281027
H 0.266659 1.617507 2.648674
H -1.533260 1.984154 2.861770
H -2.062873 1.097398 0.710722
H 1.743543 0.766828 1.250563
H 3.237985 -0.210956 -0.425052
H 2.341765 -1.045607 -2.583385
H -0.090986 -0.887652 -3.047224
H -1.614251 0.089940 -1.381713
H -2.018316 4.244506 9.542060
H -2.126526 4.654182 7.821572
H -1.300743 5.738856 8.941324
H -3.451598 6.090204 10.174870
H -3.453758 6.740647 8.543825
H -4.645697 4.004655 9.271053
H -5.528545 5.525307 9.297606
H -4.358989 4.040129 6.903499
H -4.588972 5.764092 6.793821
H -6.459587 4.825069 5.793994
H -7.509757 5.577651 8.565009
H -8.409127 5.554543 7.061245
H -6.018752 7.384876 7.601584
H -6.988605 7.354006 6.124084
H -7.711907 7.846138 7.660385
H -8.056766 3.211716 6.997342
H -6.830867 3.031988 8.249830
H -5.864286 -0.584978 3.085207
C -0.737490 1.584898 2.239735
C -1.022951 1.084922 1.031323
C -0.060563 0.509497 0.073004
C 1.309816 0.413267 0.318146
C 2.176077 -0.143719 -0.631337
C 1.669893 -0.613693 -1.847167
C 0.309265 -0.523503 -2.102477
C -0.553587 0.032664 -1.153674
C -10.348112 -2.874804 3.015338
C -11.475515 -2.455613 2.079512
C -11.031168 -1.501525 0.963707
C -10.012356 -2.146849 0.013197
C -9.852700 -1.391843 -1.322663
C -8.816068 -2.091966 -2.240728
C -9.247413 -3.473565 -2.677309
C -9.458755 0.092060 -1.135711
O -8.177902 0.208481 -0.484790
C -7.168789 0.689199 -1.255447
O -7.268075 0.969336 -2.441786
C -5.885627 0.829087 -0.489546
C -4.815645 0.991838 -1.295775
H 0.266784 1.617517 2.648752
H -1.533582 1.984307 2.861999
H -2.062570 1.097436 0.710901
H 1.744322 0.767044 1.251309
H 3.236218 -0.210980 -0.425704
H 2.341160 -1.045263 -2.582835
H -0.091018 -0.887495 -3.046890
H -1.613684 0.089933 -1.381532
H -9.973459 -2.019099 3.590876
H -9.517854 -3.312351 2.450284
H -10.712781 -3.641127 3.712205
H -11.920512 -3.348370 1.627703
H -12.268175 -1.968367 2.662431
H -11.925935 -1.211643 0.392960
H -10.601617 -0.586426 1.401020
H -10.340177 -3.168464 -0.203634
H -9.034405 -2.214206 0.503601
H -10.827710 -1.405796 -1.842111
H -7.850968 -2.162617 -1.727820
H -8.664543 -1.482541 -3.131909
H -8.553058 -3.858023 -3.423121
H -10.249107 -3.450633 -3.121127
H -9.261109 -4.177924 -1.844463
H -9.498545 0.595427 -2.100021
H -10.193872 0.601409 -0.502940
H -4.949408 1.064816 -2.373595
C -0.738087 1.584651 2.238982
C -1.021506 1.085266 1.032574
C -0.063878 0.509317 0.071493
C 1.312366 0.413839 0.320276
C 2.174240 -0.144234 -0.633098
C 1.672360 -0.613627 -1.846192
C 0.306246 -0.523436 -2.103338
C -0.550629 0.032699 -1.152604
C 5.767053 5.906938 1.219794
C 4.503877 6.727124 0.989011
C 3.360543 5.847493 0.440781
C 1.981931 6.184909 1.033037
C 1.416378 5.130366 2.012322
C 2.276203 4.985265 3.302184
C 1.868187 5.962256 4.387016
C 1.201070 3.744252 1.357190
O 0.308424 3.830887 0.231797
C -0.797960 3.028306 0.257478
O -1.120873 2.354148 1.232800
C -1.601266 3.074719 -0.983651
C -1.435903 3.944159 -2.011874
H 0.267561 1.617374 2.648693
H -1.532954 1.984379 2.862366
H -2.063185 1.097584 0.711026
H 1.743928 0.766626 1.250248
H 3.236822 -0.211101 -0.425770
H 2.340680 -1.045228 -2.582917
H -0.090957 -0.887325 -3.046490
H -1.614918 0.090045 -1.381695
H 5.616485 5.183059 2.024599
H 6.586971 6.567613 1.517789
H 6.068953 5.375205 0.316545
H 4.214980 7.211273 1.929317
H 4.725493 7.510785 0.254191
H 3.310879 5.970393 -0.646615
H 3.607725 4.790739 0.591547
H 2.007581 7.148596 1.540542
H 1.276460 6.290603 0.200335
H 0.430939 5.454705 2.317775
H 2.221375 3.960348 3.685769
H 3.325429 5.139726 3.066411
H 0.825065 5.798499 4.669985
H 1.988214 6.994478 4.043322
H 2.482797 5.802713 5.269074
H 0.828239 3.044449 2.122045
H 2.137683 3.325167 0.996687
H -2.149137 3.930552 -2.833199
C -0.737967 1.584241 2.238115
C -1.022492 1.085680 1.033164
C -0.061741 0.509082 0.071686
C 1.311211 0.413430 0.318976
C 2.175231 -0.143803 -0.631809
C 1.671312 -0.613821 -1.846977
C 0.307752 -0.523508 -2.102997
C -0.551823 0.032876 -1.152613
C 2.285632 -3.080073 -2.226695
C 1.503885 -1.792082 -2.059972
C 0.757506 -1.391385 -3.324038
C 1.714618 -0.843926 -4.399020
C 1.039094 -0.211655 -5.625187
C 0.351401 -1.300502 -6.483371
C -0.085033 -0.787247 -7.848012
C 0.086674 0.938328 -5.249885
O 0.799490 1.881309 -4.433056
C 0.305556 3.127940 -4.416647
O -0.799693 3.440172 -4.849985
C 1.162087 4.108764 -3.657360
C 2.516016 3.996148 -3.593458
H 0.266874 1.617471 2.648688
H -1.533934 1.984419 2.862131
H -2.062822 1.097395 0.710723
H 1.744272 0.766931 1.251040
H 3.236567 -0.211036 -0.425712
H 2.340860 -1.045159 -2.582705
H -0.090900 -0.887362 -3.046555
H -1.614307 0.089994 -1.381604
H 1.603560 -3.916877 -2.359110
H 2.969166 -3.028651 -3.081150
H 2.896798 -3.277421 -1.344496
H 2.175462 -0.984562 -1.748213
H 0.781041 -1.925928 -1.254580
H 0.189272 -2.240859 -3.718249
H 0.036258 -0.617966 -3.047445
H 2.353466 -0.093546 -3.932385
H 2.396883 -1.635105 -4.733128
H 1.843478 0.225328 -6.222761
H -0.509522 -1.720603 -5.953710
H 1.059160 -2.118243 -6.648795
H -0.438980 -1.624514 -8.459572
H 0.752165 -0.317607 -8.372721
H -0.904010 -0.063567 -7.761699
H -0.273664 1.426850 -6.157425
H -0.778020 0.565954 -4.693257
H 3.076062 4.773145 -3.063627
C -0.737384 1.585599 2.241328
C -1.022145 1.084208 1.030005
C -0.063993 0.509780 0.072484
C 1.312728 0.413512 0.319668
C 2.173645 -0.144016 -0.632813
C 1.672173 -0.613614 -1.846226
C 0.306529 -0.523325 -2.102997
C -0.551140 0.032595 -1.153008
C 1.733555 9.140128 -9.993913
C 0.522228 8.366304 -9.488101
C 0.904182 7.192930 -8.590967
C 1.451903 5.979734 -9.384978
C 1.677930 4.684057 -8.581219
C 0.469317 3.712044 -8.575171
C -0.855387 4.312514 -8.140398
C 2.208230 4.957158 -7.159338
O 2.637402 3.767200 -6.470994
C 3.886214 3.345876 -6.793379
O 4.517307 3.734645 -7.774969
C 4.425292 2.312531 -5.853488
C 5.502375 1.634374 -6.356044
H 0.267089 1.617398 2.648587
H -1.532798 1.984202 2.862025
H -2.062678 1.097581 0.711190
H 1.744039 0.766650 1.250339
H 3.237149 -0.211176 -0.425828
H 2.340685 -1.045309 -2.583096
H -0.091148 -0.887349 -3.046607
H -1.614661 0.090095 -1.381497
H 1.405528 9.962632 -10.639849
H 2.412140 8.500319 -10.572704
H 2.295289 9.573399 -9.156716
H -0.073606 8.022136 -10.341846
H -0.103586 9.050360 -8.909501
H 1.679366 7.526345 -7.893222
H 0.043746 6.901253 -7.996978
H 2.414280 6.275313 -9.817895
H 0.795785 5.770198 -10.238882
H 2.454479 4.134367 -9.111938
H 0.706570 2.842476 -7.945610
H 0.348764 3.312701 -9.589468
H -1.196525 5.056697 -8.858425
H -1.628129 3.530093 -8.090146
H -0.779199 4.780760 -7.152255
H 1.442766 5.406522 -6.535224
H 3.039566 5.670656 -7.191149
H 5.845206 1.816394 -7.374114
C -0.737319 1.585615 2.241384
C -1.023023 1.084259 1.029821
C -0.063427 0.509339 0.071688
C 1.312386 0.413781 0.320151
C 2.174306 -0.144176 -0.632944
C 1.671447 -0.613295 -1.845755
C 0.307974 -0.523618 -2.103164
C -0.551332 0.032719 -1.152799
C 2.120000 -8.066638 -10.698582
C 2.566482 -6.669560 -10.293805
C 3.674305 -6.722720 -9.245698
C 3.965838 -5.361429 -8.628581
C 4.560320 -4.283405 -9.561587
C 6.005828 -4.641800 -9.961225
C 6.573858 -3.699215 -11.008249
C 4.483647 -2.890391 -8.854315
O 5.309948 -2.801315 -7.688181
C 5.027505 -1.706542 -6.911065
O 4.211287 -0.843318 -7.199536
C 5.934810 -1.657786 -5.721268
C 6.245995 -2.730976 -4.958594
H 0.266533 1.617548 2.648730
H -1.533459 1.984174 2.861745
H -2.062705 1.097397 0.710772
H 1.743654 0.766828 1.250601
H 3.236858 -0.210871 -0.425243
H 2.341356 -1.045282 -2.582801
H -0.090630 -0.887472 -3.046705
H -1.614531 0.089884 -1.381927
H 1.318527 -8.008272 -11.444892
H 2.949305 -8.625217 -11.139748
H 1.745437 -8.627747 -9.838032
H 1.698278 -6.121275 -9.902334
H 2.913093 -6.142437 -11.189652
H 3.369464 -7.391718 -8.437668
H 4.576474 -7.155020 -9.682258
H 3.026131 -4.977728 -8.209125
H 4.657535 -5.517235 -7.796350
H 3.936182 -4.230292 -10.467409
H 6.039719 -5.660758 -10.360597
H 6.650795 -4.625922 -9.075346
H 7.555058 -4.059417 -11.328405
H 6.716061 -2.692804 -10.600505
H 5.926483 -3.644685 -11.887698
H 4.792194 -2.113509 -9.560863
H 3.431553 -2.709684 -8.598292
H 6.901968 -2.585943 -4.117471
C -0.737495 1.584463 2.238762
C -1.021520 1.084952 1.031875
C -0.062099 0.510518 0.074765
C 1.310798 0.413123 0.318157
C 2.173522 -0.143904 -0.632606
C 1.672713 -0.613506 -1.845809
C 0.306749 -0.523191 -2.102628
C -0.553039 0.031801 -1.155411
C 10.312788 1.837507 -1.305746
C 9.882480 0.379505 -1.245443
C 10.689021 -0.478160 -2.219173
C 10.375335 -1.963633 -2.065559
C 11.179587 -2.832237 -3.051373
C 11.254409 -4.297130 -2.541383
C 12.150546 -4.470840 -1.330435
C 10.593322 -2.770655 -4.476918
O 9.260785 -3.339590 -4.518492
C 9.164959 -4.596511 -5.041373
O 10.033512 -5.189981 -5.675995
C 8.011353 -5.280815 -4.409920
C 8.315839 -6.267253 -3.617999
H 0.266958 1.617409 2.648565
H -1.533154 1.984335 2.862204
H -2.062824 1.097533 0.711041
H 1.743882 0.767031 1.251136
H 3.237223 -0.210999 -0.425411
H 2.340850 -1.045142 -2.582674
H -0.090860 -0.887472 -3.046790
H -1.613614 0.089880 -1.381623
H 10.176863 2.251138 -2.310854
H 11.369929 1.934708 -1.028629
H 9.713343 2.435073 -0.605987
H 10.016079 0.001168 -0.226729
H 8.817001 0.299378 -1.484288
H 10.487461 -0.153128 -3.243584
H 11.762297 -0.321878 -2.048528
H 10.612328 -2.244296 -1.033632
H 9.304035 -2.143353 -2.202615
H 12.211331 -2.445881 -3.094724
H 11.649151 -4.933882 -3.336453
H 10.254343 -4.660773 -2.290953
H 13.136176 -4.021489 -1.484553
H 12.297171 -5.534806 -1.126796
H 11.709063 -4.030810 -0.431845
H 10.503397 -1.736529 -4.811524
H 11.272408 -3.264786 -5.181781
H 8.658032 -7.060289 -2.993988
