1248
Molecule ID: homopoly_6476333
C -14.140460 -9.335004 -9.864456
C -13.749369 -10.623784 -9.153199
O -13.095916 -10.240102 -7.936373
C -13.218777 -11.164703 -6.853106
O -12.144414 -10.942948 -5.948195
C -12.511523 -10.158251 -4.803929
C -13.109991 -8.764126 -5.144005
O -14.368149 -8.577220 -4.474496
C -12.132287 -7.642860 -4.786920
O -12.636022 -6.433745 -5.357581
C -11.746223 -5.337987 -5.169101
C -11.297638 -4.784800 -6.508316
C -12.453953 -4.500217 -7.445385
C -12.467215 -5.101679 -8.714488
C -13.548168 -4.920791 -9.578993
C -14.615846 -4.146189 -9.158332
O -15.686192 -4.002908 -9.989798
C -14.611033 -3.531521 -7.913158
O -15.698606 -2.792135 -7.561502
C -13.531622 -3.690611 -7.053369
O -10.878561 -7.963259 -5.352483
C -10.239324 -9.067496 -4.685953
C -9.209779 -8.478494 -3.736829
O -8.382098 -7.516782 -4.420289
C -7.125596 -7.495793 -3.927186
O -6.445733 -8.482703 -3.662173
C -6.797354 -6.189229 -3.397084
C -6.853822 -5.206154 -2.536612
C -7.824983 -5.511819 -1.450865
C -9.188295 -5.482318 -1.765136
C -10.147372 -5.827944 -0.807482
C -9.715329 -6.222819 0.440674
O -10.625463 -6.483148 1.414982
C -8.369469 -6.329486 0.747254
O -7.975672 -6.785377 1.964194
C -7.412327 -5.999242 -0.204504
C -11.224539 -10.026484 -3.973882
O -11.555657 -9.550975 -2.657274
C -13.228934 -12.623179 -7.322700
O -12.047260 -12.955085 -8.075669
C -14.471911 -12.845774 -8.190254
O -14.193429 -13.874974 -9.150610
C -14.950499 -11.548243 -8.883612
O -15.687935 -11.913154 -10.053719
H -13.238149 -8.750872 -10.094674
H -14.763594 -8.705596 -9.223647
H -14.665678 -9.522504 -10.803034
H -13.009573 -11.139444 -9.782986
H -14.176916 -10.966389 -6.349681
H -13.241232 -10.739711 -4.223377
H -13.343525 -8.668494 -6.202963
H -14.575588 -7.627124 -4.580003
H -12.070678 -7.469293 -3.706275
H -12.293184 -4.578174 -4.622440
H -10.876726 -5.594341 -4.559207
H -10.766312 -3.845393 -6.351717
H -10.595581 -5.487513 -6.972755
H -11.655204 -5.756010 -9.032102
H -13.567908 -5.401777 -10.546869
H -16.352099 -3.536613 -9.446055
H -15.523291 -2.380802 -6.693410
H -13.541476 -3.226305 -6.071996
H -9.712228 -9.601638 -5.478553
H -9.731235 -7.911270 -2.958039
H -8.629959 -9.267710 -3.226311
H -9.506153 -5.216748 -2.765375
H -11.198843 -5.815600 -1.062548
H -10.660399 -5.648417 1.930278
H -8.758255 -7.235797 2.349891
H -6.363574 -6.146354 0.031759
H -10.732153 -10.997017 -3.842380
H -12.085870 -10.241864 -2.210331
H -13.234241 -13.299192 -6.461342
H -12.327560 -13.664693 -8.687211
H -15.296699 -13.216662 -7.571302
H -14.852194 -13.736089 -9.859677
H -15.642272 -11.036360 -8.203089
H -16.192001 -11.135221 -10.347806
C -10.772051 6.633012 -0.693440
C -11.031759 5.264610 -1.313233
O -9.769463 4.568626 -1.366512
C -9.937352 3.187981 -1.701010
O -8.663899 2.598038 -1.966564
C -8.321104 2.520751 -3.370674
C -9.074064 1.379209 -4.083056
O -10.444256 1.703511 -4.312329
C -8.874354 0.117950 -3.207318
O -9.435483 -1.046560 -3.856184
C -10.797598 -1.276995 -3.460644
C -10.858498 -2.217173 -2.259789
C -12.234767 -2.343306 -1.643002
C -13.260616 -3.015674 -2.318598
C -14.537414 -3.159822 -1.771311
C -14.796473 -2.569986 -0.546587
O -16.046966 -2.681078 -0.027119
C -13.803869 -1.872104 0.129617
O -14.143927 -1.287575 1.311480
C -12.517724 -1.770121 -0.400257
O -7.495404 -0.097707 -2.842779
C -6.503933 0.686600 -3.549201
C -5.077091 0.360503 -3.026287
O -4.636846 -0.905053 -3.563773
C -3.708008 -1.624341 -2.852171
O -3.089886 -1.239187 -1.880178
C -3.792172 -3.054460 -3.354362
C -2.745177 -3.940587 -3.560342
C -3.123795 -5.199970 -4.309662
C -3.215144 -5.207737 -5.718643
C -3.666897 -6.316428 -6.446233
C -3.893525 -7.473243 -5.769755
O -4.392407 -8.593022 -6.360368
C -3.687884 -7.526044 -4.394322
O -3.793621 -8.729410 -3.780653
C -3.367028 -6.395139 -3.650951
C -6.812138 2.211956 -3.478816
O -6.119288 2.891989 -2.421312
C -10.611297 2.432769 -0.532394
O -11.446805 1.384246 -1.070108
C -11.469013 3.379200 0.313502
O -12.462719 2.610440 1.015160
C -12.121697 4.437679 -0.584234
O -13.017925 5.233615 0.194252
H -11.678829 7.248469 -0.675859
H -10.382606 6.537911 0.327521
H -10.011064 7.165689 -1.273700
H -11.356330 5.427915 -2.348287
H -10.575822 3.136035 -2.586116
H -8.524879 3.497627 -3.817462
H -8.660335 1.197538 -5.075328
H -10.495096 2.203794 -5.144064
H -9.391478 0.224695 -2.248571
H -11.329961 -0.342022 -3.254805
H -11.310746 -1.741481 -4.316872
H -10.131954 -1.921659 -1.498936
H -10.534673 -3.213199 -2.590303
H -13.092378 -3.436541 -3.294016
H -15.324134 -3.696140 -2.296926
H -16.012668 -2.170274 0.807964
H -13.350525 -0.851517 1.681829
H -11.743868 -1.233309 0.140497
H -6.566034 0.356800 -4.593856
H -4.367335 1.118600 -3.371230
H -5.074447 0.336223 -1.931625
H -2.952206 -4.332326 -6.292702
H -3.795925 -6.236702 -7.526688
H -4.482882 -8.415045 -7.305219
H -4.510748 -9.210169 -4.246437
H -3.299417 -6.482448 -2.575259
H -6.429543 2.654219 -4.404525
H -6.480609 2.538455 -1.583968
H -9.875429 1.924032 0.100761
H -12.139862 1.238978 -0.392478
H -10.858903 3.872844 1.072896
H -13.091634 3.270715 1.375217
H -12.747445 3.926146 -1.327350
H -13.593311 5.729825 -0.419981
C 1.376728 -9.892052 -14.300596
C 2.211165 -8.765637 -13.703782
O 1.757829 -8.508567 -12.374663
C 2.422441 -7.384051 -11.806152
O 1.924711 -7.121498 -10.495375
C 1.073685 -5.972191 -10.416715
C -0.369662 -6.304439 -10.734397
O -0.578426 -6.535739 -12.132518
C -0.798141 -7.500235 -9.882368
O -2.238598 -7.447515 -9.839580
C -2.820667 -8.733326 -9.666790
C -3.201568 -9.306396 -11.024075
C -3.927595 -10.615295 -10.860088
C -3.224918 -11.817592 -11.009173
C -3.861626 -13.041709 -10.800949
C -5.198637 -13.051553 -10.438761
O -5.818292 -14.242921 -10.214006
C -5.904843 -11.863932 -10.282943
O -7.209132 -11.965877 -9.889832
C -5.282902 -10.638621 -10.494497
O -0.309630 -7.574422 -8.551454
C 0.588445 -6.591694 -8.002750
C -0.166215 -6.052285 -6.764760
O 0.601037 -5.466881 -5.697141
C 0.815901 -4.129742 -5.820029
O 0.713560 -3.513273 -6.866490
C 1.013855 -3.531064 -4.408767
C 2.224737 -2.857896 -4.238210
C 2.783339 -2.196635 -5.498545
C 3.773564 -2.821526 -6.266562
C 4.121150 -2.375797 -7.549808
C 3.467186 -1.283759 -8.066448
O 3.753007 -0.898816 -9.354855
C 2.523430 -0.610814 -7.319810
O 1.903830 0.466384 -7.910880
C 2.173412 -1.057010 -6.036619
C 1.051597 -5.485417 -8.975330
O 2.346592 -4.998524 -8.631887
C 3.927168 -7.665687 -11.638367
O 4.569188 -6.490021 -11.118123
C 4.531964 -8.034884 -12.992280
O 5.885735 -8.503560 -12.844261
C 3.711876 -9.123623 -13.697296
O 4.225189 -9.312291 -15.024068
H 0.317545 -9.605007 -14.328477
H 1.445058 -10.801934 -13.691628
H 1.690293 -10.126490 -15.321928
H 2.042489 -7.875935 -14.321760
H 2.280009 -6.513304 -12.458215
H 1.458247 -5.179774 -11.064397
H -1.013598 -5.453310 -10.500252
H -1.509030 -6.815624 -12.218980
H -0.498335 -8.431965 -10.388999
H -3.732530 -8.587383 -9.082485
H -2.173017 -9.406218 -9.088738
H -3.825636 -8.591743 -11.571371
H -2.312446 -9.429327 -11.650999
H -2.172989 -11.814220 -11.276450
H -3.322411 -13.981218 -10.905504
H -6.730230 -14.000272 -9.952938
H -7.565599 -11.079589 -9.698843
H -5.834741 -9.714477 -10.363935
H 1.467798 -7.129165 -7.631416
H -0.726414 -6.875635 -6.300365
H -0.931232 -5.343319 -7.101746
H 4.280416 -3.724402 -5.947561
H 4.856532 -2.917184 -8.149042
H 3.182001 -0.134943 -9.509675
H 1.046354 0.602758 -7.471771
H 1.410311 -0.524630 -5.502540
H 0.361285 -4.639255 -8.941216
H 2.195260 -4.218021 -8.059830
H 4.099292 -8.461897 -10.899872
H 4.081580 -6.266846 -10.299051
H 4.600268 -7.137404 -13.619345
H 6.127104 -8.926370 -13.685658
H 3.862186 -10.077628 -13.179194
H 4.131120 -8.482358 -15.521452
C 5.945976 8.984686 -8.547785
C 6.600263 7.630511 -8.337663
O 5.940238 6.969965 -7.251369
C 6.376112 5.618690 -7.022677
O 5.398966 4.647736 -7.438220
C 5.595334 3.390029 -6.766783
C 5.915157 2.239152 -7.730747
O 7.036305 2.619118 -8.527795
C 6.251089 0.976323 -6.858107
O 6.372222 -0.191320 -7.665547
C 7.637293 -0.379326 -8.278771
C 8.679557 -0.842434 -7.275171
C 10.104299 -0.489644 -7.592302
C 10.477817 0.819656 -7.953045
C 11.815618 1.133457 -8.177259
C 12.777482 0.149539 -8.036295
O 14.084191 0.469301 -8.238099
C 12.424482 -1.138214 -7.666527
O 13.418108 -2.076619 -7.515821
C 11.098490 -1.473321 -7.436888
O 5.214113 0.720850 -5.916076
C 4.871725 1.823912 -5.063453
C 3.874851 1.338899 -4.000156
O 4.618353 0.341531 -3.247634
C 3.896718 -0.558055 -2.508060
O 2.741601 -0.461611 -2.166567
C 4.830988 -1.697493 -2.201476
C 6.063609 -1.301067 -1.646952
C 7.306143 -2.010425 -2.163900
C 7.704118 -1.815133 -3.507777
C 9.001769 -2.162225 -3.915015
C 9.904414 -2.607846 -3.010302
O 11.189973 -2.858487 -3.388339
C 9.519370 -2.885190 -1.701116
O 10.433877 -3.369258 -0.833606
C 8.221797 -2.596551 -1.287086
C 4.380565 2.971179 -5.931918
O 3.916819 4.070647 -5.176755
C 7.797370 5.320288 -7.598350
O 7.789606 5.065945 -9.018615
C 8.668975 6.538118 -7.322757
O 10.021596 6.286994 -7.686217
C 8.130788 7.748232 -8.100330
O 8.479678 8.920481 -7.353545
H 6.186379 9.688608 -7.745569
H 6.270614 9.414268 -9.505291
H 4.861857 8.873536 -8.535744
H 6.392231 7.025482 -9.230945
H 6.445047 5.592207 -5.927566
H 6.452201 3.497762 -6.073779
H 5.074027 2.040008 -8.407227
H 6.689028 3.338373 -9.104681
H 7.173456 1.161674 -6.298117
H 7.512976 -1.170206 -9.029159
H 7.932744 0.503828 -8.855559
H 8.564966 -1.923417 -7.176477
H 8.466586 -0.452612 -6.278380
H 9.730851 1.590458 -8.084499
H 12.109739 2.142451 -8.473552
H 14.570520 -0.360045 -8.085440
H 12.979900 -2.920790 -7.309139
H 10.836034 -2.479861 -7.141153
H 5.773578 2.118423 -4.507901
H 2.954475 0.930509 -4.436372
H 3.623306 2.165035 -3.339256
H 7.015493 -1.399011 -4.220281
H 9.328352 -1.979575 -4.932043
H 11.566580 -3.246568 -2.562135
H 9.989966 -3.996075 -0.220667
H 7.982198 -2.746126 -0.245783
H 3.561812 2.676260 -6.599570
H 3.686817 4.774513 -5.818987
H 8.222104 4.419093 -7.135542
H 8.725830 4.968359 -9.283369
H 8.673658 6.761923 -6.249256
H 10.289731 5.432109 -7.299138
H 8.624609 7.836595 -9.073012
H 9.411906 9.093368 -7.586427
C 11.943456 -9.451125 0.488355
C 10.480926 -9.134303 0.808520
O 10.337810 -9.092744 2.223083
C 9.070310 -8.580952 2.643431
O 9.154710 -7.152537 2.632184
C 8.479251 -6.448708 3.691507
C 9.483449 -5.481498 4.314305
O 10.610876 -6.209045 4.835411
C 9.929301 -4.405070 3.287530
O 11.021270 -4.938475 2.516064
C 12.148747 -4.058615 2.493800
C 13.347690 -4.759668 1.860798
C 13.382686 -4.744208 0.348604
C 12.590765 -5.639428 -0.394161
C 12.674094 -5.678861 -1.789567
C 13.531871 -4.801066 -2.429028
O 13.639305 -4.803312 -3.787496
C 14.268617 -3.878047 -1.708488
O 15.039949 -2.965631 -2.369518
C 14.213706 -3.849219 -0.327127
O 8.893528 -4.001668 2.393668
C 7.581351 -4.138678 2.926461
C 6.547044 -3.565908 1.923072
O 6.240886 -2.142480 1.888724
C 7.188148 -1.178322 1.698229
O 8.391649 -1.362818 1.642265
C 6.486264 0.161341 1.649983
C 6.375663 0.804528 2.888657
C 7.477684 0.513203 3.900823
C 8.406393 1.518777 4.211906
C 9.441051 1.332959 5.137253
C 9.569088 0.109899 5.766816
O 10.581323 -0.158943 6.625658
C 8.670997 -0.908374 5.467894
O 8.818229 -2.145361 6.034256
C 7.638158 -0.706021 4.564131
C 7.305786 -5.650818 3.108115
O 6.110772 -5.905540 3.861326
C 7.898480 -9.028488 1.728485
O 6.682061 -9.217099 2.473096
C 8.215957 -10.313442 0.971185
O 8.254766 -11.408422 1.897594
C 9.535923 -10.186444 0.191405
O 9.269200 -9.849545 -1.182613
H 12.086598 -9.653534 -0.577041
H 12.584734 -8.604670 0.759623
H 12.293941 -10.309838 1.069635
H 10.269193 -8.138713 0.394384
H 8.937799 -8.940780 3.669735
H 8.146595 -7.163966 4.452524
H 9.010011 -4.982616 5.163964
H 11.022074 -6.633843 4.056614
H 10.264943 -3.526179 3.853057
H 12.418314 -3.820912 3.531790
H 11.876334 -3.132570 1.967730
H 13.375419 -5.807803 2.166254
H 14.269858 -4.291261 2.229751
H 11.910018 -6.315104 0.122876
H 12.071382 -6.388991 -2.351361
H 13.932242 -5.702207 -4.027622
H 14.637251 -2.869184 -3.253988
H 14.777064 -3.073367 0.199786
H 7.497543 -3.588260 3.870628
H 6.812806 -3.882465 0.919363
H 5.567781 -4.013969 2.137292
H 8.379261 2.480504 3.715830
H 10.148776 2.137144 5.327173
H 11.279715 0.513617 6.496650
H 9.683647 -2.109219 6.497890
H 6.963825 -1.533330 4.387433
H 7.104055 -6.078651 2.137084
H 6.090203 -5.323050 4.652659
H 7.685404 -8.255617 0.994094
H 6.434057 -8.360360 2.869244
H 7.394509 -10.548644 0.280586
H 7.445870 -11.306911 2.440911
H 10.023680 -11.169286 0.175515
H 8.997141 -8.911908 -1.243391
C -4.944835 -3.235987 9.782230
C -4.393120 -3.344197 11.202514
O -3.729761 -2.117085 11.550169
C -2.360472 -2.121409 11.149580
O -1.865226 -0.770188 11.198042
C -0.648475 -0.664342 10.467962
C 0.445473 -0.006608 11.315512
O 0.468247 -0.609811 12.610749
C 1.729388 -0.239650 10.471440
O 2.937681 -0.018080 11.207552
C 3.312742 -1.248087 11.854907
C 4.561556 -1.095825 12.708345
C 4.739173 -2.355074 13.525742
C 4.204689 -2.449232 14.815164
C 4.290067 -3.638467 15.546507
C 4.912414 -4.742315 14.974166
O 5.005713 -5.911791 15.670889
C 5.442699 -4.671753 13.691318
O 6.027767 -5.771690 13.121282
C 5.362764 -3.480383 12.964748
O 1.629837 0.564275 9.292094
C 0.550084 0.077975 8.448109
C 0.476587 0.843909 7.149452
O 1.770794 1.251117 6.696712
C 1.997582 1.076103 5.379963
O 1.561565 0.158026 4.719000
C 3.068127 2.076723 4.959897
C 2.819738 3.328252 5.502475
C 4.020275 4.159417 5.937590
C 3.956588 5.572235 5.840559
C 4.790363 6.402704 6.594903
C 5.769268 5.836042 7.370466
O 6.501294 6.647539 8.179307
C 5.952176 4.456180 7.376119
O 6.973739 3.958610 8.131080
C 5.072280 3.625696 6.689417
C -0.824844 0.067815 9.157775
O -1.328901 1.381392 9.405586
C -1.559447 -3.063754 12.083493
O -0.326783 -3.522906 11.471132
C -2.422409 -4.268973 12.496453
O -1.603381 -5.421761 12.739333
C -3.508665 -4.591629 11.462796
O -2.867239 -5.044355 10.259245
H -5.567330 -2.337544 9.681450
H -5.547523 -4.110696 9.524056
H -4.155084 -3.132985 9.030003
H -5.247992 -3.387815 11.886948
H -2.302969 -2.453633 10.106674
H -0.306485 -1.662858 10.188154
H 0.272939 1.065058 11.464403
H -0.166977 -0.082812 13.132633
H 1.773047 -1.283283 10.120716
H 2.502619 -1.594738 12.497110
H 3.491706 -2.015248 11.086169
H 4.477236 -0.225324 13.365101
H 5.436224 -0.913948 12.075043
H 3.688803 -1.601956 15.262223
H 3.868833 -3.683352 16.543927
H 4.498320 -5.828875 16.493726
H 6.177615 -5.585098 12.176981
H 5.774823 -3.435800 11.960204
H 0.836099 -0.942790 8.159660
H -0.169221 1.715386 7.220104
H 0.022882 0.218538 6.396795
H 3.165818 6.043331 5.273119
H 4.629039 7.487370 6.601162
H 6.988978 6.057088 8.791262
H 6.966160 2.987510 8.078477
H 5.149486 2.562127 6.836482
H -1.581514 -0.429174 8.557865
H -2.129104 1.270523 9.952415
H -1.250074 -2.536575 12.994954
H 0.364915 -2.901155 11.779645
H -2.912471 -4.027575 13.446830
H -0.956404 -5.421998 11.999950
H -4.120071 -5.425726 11.825063
H -3.332656 -5.848026 9.961444
C -2.059294 -6.479128 1.828823
C -3.501217 -6.600235 2.304954
O -3.932892 -5.294484 2.672557
C -3.825338 -5.051897 4.057978
O -3.994432 -3.655393 4.284817
C -2.741525 -2.906264 4.289781
C -1.765158 -3.466302 5.351244
O -0.841385 -4.385367 4.712200
C -0.950585 -2.443874 6.158084
O -0.713103 -2.887955 7.514355
C -0.052989 -4.141618 7.675596
C 1.414700 -4.039835 7.298246
C 2.182892 -5.303374 7.571446
C 2.487338 -6.189341 6.531337
C 3.215201 -7.360615 6.767779
C 3.635825 -7.629134 8.058808
O 4.385738 -8.727014 8.365395
C 3.329291 -6.759560 9.099746
O 3.763339 -7.011704 10.362168
C 2.593693 -5.605708 8.874808
O -1.648068 -1.221822 6.326047
C -2.061851 -0.599394 5.099849
C -2.588595 0.791538 5.483136
O -1.857754 1.991983 5.076302
C -0.911555 2.200560 4.163473
O -0.316970 1.351199 3.483125
C -0.505624 3.655592 4.213103
C -1.191555 4.506113 3.344357
C -2.302011 3.908633 2.530180
C -2.160838 3.689416 1.153969
C -3.190130 3.122301 0.393149
C -4.358197 2.741046 1.022087
O -5.353008 2.139337 0.313643
C -4.522651 2.973900 2.376388
O -5.707439 2.628040 2.979797
C -3.530430 3.585567 3.132376
C -3.178655 -1.463527 4.525648
O -4.284258 -1.466114 5.441357
C -4.909050 -5.844548 4.811161
O -4.650948 -5.821600 6.232478
C -4.968862 -7.288666 4.259999
O -5.105362 -8.220064 5.348780
C -3.735429 -7.660628 3.409253
O -2.633415 -7.787422 4.321896
H -1.997409 -5.723743 1.036744
H -1.397984 -6.126351 2.624712
H -1.681535 -7.430079 1.450568
H -4.127104 -6.851618 1.441893
H -2.861730 -5.384388 4.417015
H -2.315893 -2.980429 3.285241
H -2.335534 -4.074921 6.061464
H -0.627503 -4.052354 3.818909
H 0.018771 -2.233877 5.697776
H -0.154383 -4.400826 8.748253
H -0.576224 -4.942745 7.152877
H 1.515557 -3.774676 6.243458
H 1.886421 -3.206699 7.843808
H 2.156156 -5.974760 5.516895
H 3.442474 -8.025812 5.939661
H 4.442524 -9.290795 7.573129
H 4.233070 -7.871200 10.307540
H 2.342824 -4.960955 9.714742
H -1.224492 -0.540174 4.412353
H -3.627951 0.947213 5.173731
H -2.613415 0.873826 6.586576
H -1.231310 3.934373 0.662174
H -3.041728 2.924260 -0.670417
H -5.469052 1.254620 0.723947
H -6.397706 2.765167 2.300728
H -3.731836 3.793550 4.182025
H -3.547461 -1.031501 3.598858
H -4.729938 -2.329406 5.315606
H -5.888306 -5.362841 4.681801
H -5.257990 -6.482458 6.612042
H -5.869909 -7.385478 3.643532
H -4.205761 -8.256370 5.738482
H -3.869308 -8.659499 2.964701
H -1.838926 -8.053445 3.826289
C -1.024268 2.740983 -8.509310
C -1.456775 4.165100 -8.165725
O -2.737936 4.096431 -7.507233
C -3.252010 5.371680 -7.103619
O -2.349516 5.965411 -6.176288
C -2.952315 6.892518 -5.257892
C -2.037052 8.118436 -5.199952
O -2.661684 9.151521 -4.430047
C -0.658142 7.725394 -4.597343
O 0.373230 7.738033 -5.586718
C 0.844447 9.036725 -5.924757
C 2.183133 8.917401 -6.645041
C 2.075182 8.313353 -8.028938
C 2.005217 9.130077 -9.167624
C 1.971580 8.567950 -10.450533
C 2.005398 7.194747 -10.577820
O 2.014566 6.582834 -11.793870
C 2.038826 6.372253 -9.457172
O 2.058332 5.019566 -9.586632
C 2.068539 6.922466 -8.178432
O -0.670262 6.413334 -4.016265
C -1.765876 6.178159 -3.122697
C -1.650847 7.133750 -1.941600
O -2.396044 6.680516 -0.805662
C -1.662942 6.787358 0.340520
O -0.427486 6.878825 0.356958
C -2.499795 6.921837 1.590829
C -3.624310 7.667481 1.523720
C -4.820921 7.032708 2.184229
C -5.261005 7.370308 3.477067
C -6.434814 6.835008 4.020944
C -7.165290 5.941899 3.274149
O -8.348299 5.459725 3.781707
C -6.758655 5.571079 1.997899
O -7.525499 4.676906 1.314095
C -5.594082 6.106904 1.448993
C -3.110163 6.262012 -3.856818
O -3.707052 4.957270 -3.985719
C -3.437472 6.278178 -8.341186
O -3.954102 7.581478 -8.025820
C -2.084223 6.439372 -9.044570
O -2.276055 7.214132 -10.251688
C -1.514330 5.062708 -9.411452
O -2.342053 4.486602 -10.436893
H 0.003982 2.726338 -8.883748
H -1.077458 2.101724 -7.627909
H -1.675183 2.295019 -9.264026
H -0.734261 4.572937 -7.446555
H -4.215518 5.180084 -6.612135
H -3.945437 7.204811 -5.602750
H -1.902954 8.526840 -6.205880
H -2.122326 9.954778 -4.543451
H -0.367704 8.439588 -3.810555
H 1.002147 9.621898 -5.014260
H 0.106552 9.565565 -6.541120
H 2.877913 8.305270 -6.065202
H 2.653089 9.904063 -6.734834
H 1.999324 10.211737 -9.066081
H 1.932003 9.221596 -11.312201
H 2.170056 7.257740 -12.479358
H 2.125950 4.860989 -10.551851
H 2.100321 6.259924 -7.318437
H -1.646694 5.165085 -2.725241
H -0.572841 7.298900 -1.750560
H -2.050832 8.125657 -2.196849
H -4.701033 8.071439 4.100252
H -6.775433 7.122109 5.000814
H -8.680815 4.833366 3.116505
H -7.284528 4.706227 0.364161
H -5.282729 5.785862 0.464255
H -3.821885 6.845917 -3.258864
H -3.967035 4.642793 -3.097816
H -4.157595 5.817694 -9.032201
H -4.074426 8.020076 -8.886066
H -1.378179 6.999818 -8.420661
H -1.852503 8.078204 -10.071223
H -0.529714 5.162962 -9.865734
H -2.671744 5.246486 -10.960528
C -5.398664 1.972096 7.471924
C -6.794323 1.769590 6.881074
O -6.689434 0.898015 5.756962
C -7.907795 0.778213 5.005440
O -7.905221 -0.551562 4.477210
C -8.047252 -0.654755 3.046183
C -9.181569 -1.647231 2.755287
O -10.362497 -1.327749 3.490223
C -8.605809 -3.048114 3.022979
O -9.687462 -3.979851 3.195063
C -9.660058 -4.624384 4.496563
C -9.782706 -3.628460 5.670255
C -10.194540 -4.192596 7.011028
C -9.482052 -3.849454 8.176133
C -9.913767 -4.247393 9.438365
C -11.092133 -4.969035 9.543562
O -11.593397 -5.351019 10.751041
C -11.823831 -5.288656 8.403725
O -13.031603 -5.926289 8.536662
C -11.381801 -4.924472 7.142714
O -7.743498 -3.404175 1.934606
C -6.910997 -2.319352 1.445745
C -5.539842 -2.911086 1.002537
O -5.590403 -3.813266 -0.135047
C -5.867801 -3.201049 -1.299560
O -6.042574 -1.988845 -1.371319
C -5.865562 -4.102086 -2.505807
C -5.239698 -3.519720 -3.560058
C -5.927358 -3.262638 -4.889922
C -7.327533 -3.216394 -5.039241
C -7.943037 -2.878758 -6.248419
C -7.184918 -2.645306 -7.380667
O -7.723783 -2.351385 -8.584457
C -5.800106 -2.661431 -7.269028
O -5.021537 -2.430147 -8.350026
C -5.203152 -2.898107 -6.038362
C -6.703109 -1.189235 2.495966
O -5.949516 -0.078573 1.981968
C -9.186087 0.956468 5.854116
O -9.578807 2.338620 5.904568
C -8.931277 0.437181 7.270325
O -10.111254 0.595323 8.076078
C -7.738520 1.157889 7.933236
O -8.232636 2.153808 8.846667
H -4.730449 2.409150 6.725290
H -4.955937 1.020772 7.775150
H -5.424156 2.638218 8.336974
H -7.148935 2.751257 6.544937
H -7.876925 1.535066 4.215036
H -8.310507 0.317655 2.610595
H -9.477264 -1.568277 1.702615
H -10.952198 -2.100836 3.394233
H -7.964802 -3.068544 3.910250
H -8.747956 -5.226441 4.575906
H -10.505889 -5.328714 4.493129
H -10.502950 -2.845747 5.424617
H -8.824882 -3.117784 5.802449
H -8.579552 -3.252258 8.107415
H -9.336970 -3.982773 10.323811
H -10.909614 -5.204081 11.430405
H -13.198633 -5.929524 9.503560
H -12.013375 -5.153785 6.283615
H -7.433650 -1.901062 0.576246
H -5.150883 -3.503723 1.826235
H -4.796043 -2.128096 0.793647
H -7.973806 -3.357215 -4.178023
H -9.020434 -2.777780 -6.279648
H -8.700613 -2.333386 -8.487892
H -5.615093 -2.077865 -9.045297
H -4.135500 -2.732396 -5.998587
H -6.113452 -1.607419 3.317952
H -5.751091 0.486509 2.762532
H -10.029597 0.425936 5.405224
H -10.404545 2.359324 6.424376
H -8.708863 -0.636725 7.219848
H -9.913939 1.377828 8.636932
H -7.205726 0.413896 8.548583
H -7.469866 2.470902 9.363623
C -0.077172 -15.367628 2.153197
C -0.389271 -14.863581 0.750476
O 0.357627 -13.666219 0.513856
C -0.052085 -12.987255 -0.688428
O -0.858830 -11.864502 -0.296797
C -0.954453 -10.845233 -1.304890
C -2.421391 -10.672558 -1.737491
O -3.164572 -11.898207 -1.697136
C -3.079614 -9.564227 -0.888298
O -4.460536 -9.534274 -1.245238
C -5.372895 -9.334716 -0.164630
C -5.501228 -10.594275 0.703936
C -6.725431 -10.755872 1.581038
C -7.922791 -10.053538 1.374527
C -9.074092 -10.346073 2.114704
C -9.027618 -11.349347 3.059635
O -10.170279 -11.686193 3.724816
C -7.841103 -12.025773 3.319403
O -7.869176 -13.009132 4.269625
C -6.690993 -11.736621 2.586308
O -2.443942 -8.276973 -1.067057
C -1.066737 -8.366269 -1.532572
C -0.373140 -7.003073 -1.449595
O -0.764711 -6.115343 -2.555225
C -0.701715 -4.789898 -2.259930
O -0.257938 -4.366784 -1.196063
C -1.249448 -3.846380 -3.321287
C -0.361666 -3.028392 -3.964244
C -0.896042 -1.764460 -4.557865
C -0.686617 -0.574490 -3.859752
C -1.277500 0.651581 -4.225628
C -2.093121 0.657641 -5.333118
O -2.827227 1.736501 -5.710092
C -2.222868 -0.491598 -6.109483
O -2.998524 -0.452444 -7.235046
C -1.609281 -1.688550 -5.748899
C -0.406121 -9.511962 -0.725646
O 1.010760 -9.517973 -0.710148
C -0.712620 -13.913199 -1.765031
O -2.093522 -14.215642 -1.496229
C 0.038389 -15.238519 -1.772026
O 1.404248 -15.006625 -2.154817
C -0.077771 -15.897626 -0.367194
O 1.108798 -16.662801 -0.108054
H -0.344284 -14.605980 2.894283
H 0.988094 -15.565372 2.287156
H -0.641260 -16.276029 2.374908
H -1.457556 -14.603278 0.753017
H 0.888585 -12.588511 -1.092134
H -0.367474 -11.134262 -2.182289
H -2.426474 -10.380974 -2.788528
H -4.056374 -11.642019 -2.009718
H -3.003139 -9.826189 0.171132
H -6.326689 -9.079342 -0.637051
H -5.064434 -8.473190 0.430144
H -5.451128 -11.482459 0.058559
H -4.617990 -10.651026 1.354030
H -8.001672 -9.283476 0.612887
H -9.999283 -9.811798 1.935108
H -9.918608 -12.443358 4.297135
H -6.951922 -13.196870 4.537353
H -5.778928 -12.306472 2.762047
H -1.085717 -8.610454 -2.600762
H -0.586332 -6.537337 -0.475914
H 0.709458 -7.121683 -1.542105
H -0.022410 -0.581811 -3.006995
H -1.100027 1.542668 -3.622692
H -2.516300 2.545316 -5.259473
H -3.458532 0.413915 -7.200950
H -1.725232 -2.531566 -6.407527
H -0.706586 -9.424427 0.328268
H 1.291200 -10.248515 -0.125079
H -0.683022 -13.434654 -2.747411
H -2.548025 -13.345722 -1.403479
H -0.389626 -15.925653 -2.514321
H 1.700251 -15.808562 -2.635937
H -0.901341 -16.617076 -0.369643
H 1.867375 -16.039859 -0.150645
C 3.622923 -13.126003 1.748739
C 4.087456 -13.280391 0.305869
O 4.886898 -12.152615 -0.044836
C 5.178066 -12.085745 -1.452289
O 4.162998 -11.314226 -2.103284
C 4.676558 -10.431748 -3.107767
C 3.784154 -10.563323 -4.326692
O 3.745332 -11.954163 -4.718196
C 2.366569 -10.010139 -4.025087
O 1.698294 -9.741475 -5.252410
C 0.557926 -10.569583 -5.384425
C -0.048365 -10.433784 -6.773955
C -0.992160 -11.587828 -6.981535
C -0.495173 -12.858576 -7.313537
C -1.341774 -13.968856 -7.354924
C -2.683075 -13.787965 -7.072031
O -3.512270 -14.868896 -7.038207
C -3.190388 -12.529403 -6.790407
O -4.525461 -12.363006 -6.578016
C -2.352861 -11.430932 -6.717723
O 2.317729 -8.851513 -3.205916
C 3.543761 -8.123931 -3.179491
C 3.352291 -6.935636 -2.225833
O 2.655039 -5.771502 -2.687129
C 3.280469 -5.106289 -3.692278
O 4.026183 -5.584288 -4.525355
C 3.294282 -3.589011 -3.421627
C 4.442316 -3.113924 -2.760585
C 5.531750 -4.154976 -2.619899
C 6.368231 -4.470903 -3.702523
C 7.448201 -5.353902 -3.582522
C 7.679933 -5.946850 -2.364288
O 8.719462 -6.834202 -2.207360
C 6.818892 -5.714092 -1.303543
O 6.929250 -6.473791 -0.175743
C 5.777745 -4.777303 -1.395965
C 4.674571 -9.002794 -2.571254
O 5.927809 -8.399666 -2.894038
C 5.260772 -13.481057 -2.134790
O 6.070159 -13.469984 -3.321110
C 5.819972 -14.472354 -1.120469
O 5.990585 -15.767878 -1.721603
C 4.882837 -14.586651 0.092610
O 3.950113 -15.661991 -0.090206
H 4.473999 -13.023707 2.425810
H 3.019079 -13.981531 2.064329
H 3.021503 -12.218354 1.849894
H 3.184130 -13.282474 -0.321053
H 6.141244 -11.570798 -1.525523
H 5.678831 -10.743831 -3.408765
H 4.214538 -10.029162 -5.178105
H 3.225874 -12.430788 -4.042268
H 1.815629 -10.780439 -3.475095
H -0.181829 -10.313412 -4.617714
H 0.868875 -11.617800 -5.222143
H -0.574061 -9.480618 -6.855870
H 0.721801 -10.412042 -7.550552
H 0.567977 -13.007138 -7.493402
H -0.952946 -14.959069 -7.590992
H -3.791999 -14.941081 -6.109627
H -4.958717 -13.133126 -6.991171
H -2.756852 -10.461802 -6.436209
H 3.777427 -7.790084 -4.194313
H 4.320709 -6.628858 -1.829592
H 2.783843 -7.250107 -1.338983
H 6.187327 -4.009129 -4.670336
H 8.061758 -5.548683 -4.450322
H 9.316848 -6.687828 -2.958740
H 6.144118 -6.322877 0.372615
H 5.134211 -4.576186 -0.549212
H 4.570762 -9.024649 -1.481358
H 6.419538 -8.199403 -2.076742
H 4.267072 -13.805626 -2.458957
H 5.616713 -12.898910 -3.979714
H 6.813776 -14.135628 -0.802426
H 6.389034 -15.592240 -2.601804
H 5.485799 -14.829443 0.974572
H 4.458770 -16.341643 -0.589139
C 11.558959 5.780502 2.716171
C 12.348674 4.599673 3.276144
O 12.031456 3.466714 2.451847
C 13.079239 3.117883 1.540793
O 12.605801 2.173461 0.588795
C 11.870863 2.779074 -0.486051
C 12.769970 3.354079 -1.580315
O 13.628994 2.360139 -2.150037
C 11.811149 3.987342 -2.606098
O 12.538128 4.766903 -3.546456
C 12.265881 6.169006 -3.405401
C 12.645686 6.712481 -2.022423
C 12.429264 8.194339 -1.911126
C 13.535784 9.042630 -1.754631
C 13.364342 10.425904 -1.699328
C 12.090647 10.952216 -1.802701
O 11.932226 12.303335 -1.790703
C 10.988062 10.117909 -1.923161
O 9.749724 10.693229 -2.000292
C 11.141697 8.739401 -1.974677
O 11.009947 2.998032 -3.239649
C 10.095192 2.394688 -2.291600
C 9.225477 1.418180 -3.109265
O 7.883656 1.184830 -2.591973
C 7.849479 0.466464 -1.435644
O 8.825705 0.114984 -0.826058
C 6.434963 0.055241 -0.990134
C 6.234930 0.703049 0.229898
C 6.511927 2.178306 -0.018998
C 7.664536 2.804292 0.487098
C 8.036554 4.092570 0.093078
C 7.325281 4.717825 -0.900850
O 7.681287 5.938523 -1.380226
C 6.243317 4.085553 -1.483114
O 5.652556 4.621637 -2.580069
C 5.794966 2.854433 -1.012013
C 10.885175 1.781934 -1.096159
O 11.583694 0.618564 -1.544260
C 14.318252 2.612751 2.314719
O 14.160425 1.290284 2.857656
C 14.665464 3.592834 3.454618
O 14.400271 2.977424 4.738788
C 13.868503 4.897028 3.367132
O 14.184084 5.693496 4.509833
H 11.712362 6.684850 3.304668
H 10.487803 5.549254 2.697232
H 11.845231 5.980197 1.679602
H 11.954864 4.383434 4.279544
H 13.378855 4.021631 1.001615
H 11.258565 3.585893 -0.058749
H 13.446259 4.106347 -1.170323
H 13.054765 1.599816 -2.397208
H 11.111604 4.642785 -2.079179
H 12.838465 6.684230 -4.188323
H 11.205654 6.338546 -3.634814
H 12.074748 6.243582 -1.208477
H 13.691744 6.445857 -1.811409
H 14.538719 8.635642 -1.677859
H 14.223163 11.087972 -1.597163
H 10.993834 12.447061 -2.012809
H 9.119697 10.048491 -1.619894
H 10.271207 8.095908 -2.078226
H 9.438806 3.187497 -1.927818
H 9.739112 0.470629 -3.286157
H 9.075261 1.833142 -4.121211
H 8.291674 2.280378 1.208044
H 8.908479 4.563454 0.555233
H 7.862095 6.510899 -0.600874
H 6.244630 5.347334 -2.862667
H 4.954124 2.384493 -1.520949
H 10.252624 1.522236 -0.244406
H 11.015794 -0.147828 -1.324454
H 15.147441 2.546973 1.600339
H 14.040336 1.421891 3.820260
H 15.742297 3.801606 3.442950
H 14.566533 3.694502 5.386965
H 14.199843 5.458458 2.486461
H 13.831809 6.593075 4.368565
C 11.916739 6.373198 7.107965
C 10.627495 6.667611 6.359364
O 10.860498 7.818829 5.517893
C 9.663427 8.516562 5.141628
O 8.798718 7.590880 4.462162
C 7.767464 8.233956 3.694698
C 8.251347 8.456852 2.255345
O 8.800580 9.765030 2.094673
C 7.095190 8.121084 1.300717
O 7.437500 8.479305 -0.053770
C 6.525789 9.469502 -0.583200
C 6.675061 10.857110 0.064190
C 5.564581 11.830526 -0.235654
C 5.632231 12.719868 -1.319833
C 4.609677 13.645359 -1.561349
C 3.506051 13.678068 -0.721488
O 2.470483 14.547201 -0.899272
C 3.434671 12.811689 0.360885
O 2.384006 12.891926 1.226350
C 4.440661 11.881969 0.602958
O 6.899721 6.694533 1.411932
C 6.382608 6.281691 2.702474
C 7.101767 5.002690 3.231953
O 6.671202 3.677749 2.776319
C 5.423046 3.256336 3.129413
O 4.577438 4.095091 3.396226
C 5.280083 1.783893 3.416293
C 4.311018 1.370951 4.341288
C 4.459284 -0.064400 4.833705
C 4.118077 -1.139886 4.003782
C 4.284657 -2.473082 4.417697
C 4.793991 -2.728203 5.673747
O 5.121847 -4.006280 6.004383
C 5.072685 -1.676999 6.537047
O 5.598810 -2.006980 7.747645
C 4.883603 -0.346159 6.144158
C 6.485271 7.390526 3.776927
O 5.377022 8.291365 3.637759
C 8.981490 9.151024 6.396554
O 9.469072 10.479238 6.626967
C 9.198682 8.308613 7.659591
O 10.333763 8.829843 8.386591
C 9.399022 6.834127 7.276074
O 9.451919 6.020179 8.439683
H 12.791508 6.513647 6.465815
H 12.052800 7.038433 7.964865
H 11.922473 5.339718 7.476829
H 10.455277 5.815787 5.689591
H 9.979104 9.295602 4.436638
H 7.534316 9.212232 4.141384
H 9.082217 7.783080 2.029562
H 8.254939 10.416871 2.567022
H 6.163064 8.633101 1.553131
H 6.736806 9.553119 -1.656895
H 5.502604 9.084059 -0.486807
H 7.642360 11.294627 -0.219754
H 6.729615 10.773890 1.151282
H 6.487813 12.697669 -1.994459
H 4.685783 14.314658 -2.411043
H 2.738877 15.192987 -1.581081
H 1.825360 13.633604 0.908051
H 4.339108 11.210444 1.453421
H 5.327746 6.066786 2.519205
H 7.082194 4.946663 4.329744
H 8.162513 5.067724 2.965429
H 3.733056 -0.948932 3.009503
H 4.028816 -3.299894 3.761317
H 5.422358 -3.949343 6.938726
H 6.102691 -1.248062 8.100250
H 5.127090 0.437667 6.838243
H 6.415148 6.972444 4.783043
H 4.555773 7.834563 3.907992
H 7.906467 9.239530 6.229615
H 10.127407 10.381835 7.346972
H 8.355205 8.429936 8.345299
H 10.457915 8.228615 9.148745
H 8.516992 6.516261 6.713259
H 9.180111 5.121417 8.176417
C -5.406616 6.769070 9.790561
C -4.394333 7.260647 10.826263
O -3.070253 6.778092 10.501258
C -2.486534 5.918099 11.480600
O -1.298398 5.338079 10.962849
C -0.124364 6.107637 11.283462
C 0.592264 5.501954 12.485278
O -0.199162 5.553131 13.679139
C 1.953515 6.236240 12.602042
O 1.928728 7.637060 12.347078
C 1.298643 8.486963 13.281497
C 2.272222 8.981724 14.338047
C 1.529611 9.887793 15.285579
C 1.133330 9.438222 16.552940
C 0.339999 10.241843 17.381480
C -0.045853 11.485772 16.925956
O -0.847054 12.305189 17.669207
C 0.343175 11.946406 15.683283
O -0.053188 13.168745 15.232938
C 1.139481 11.164999 14.848235
O 2.763663 5.659782 11.586316
C 2.290755 5.904879 10.242992
C 2.756781 4.690994 9.439604
O 2.467609 4.793353 8.037841
C 1.461044 4.014612 7.590789
O 0.677112 3.460359 8.336324
C 1.453028 3.852913 6.062308
C 0.193548 4.082290 5.528618
C -0.756125 4.978767 6.349968
C -0.412908 6.323644 6.592446
C -1.400868 7.281604 6.822592
C -2.716688 6.892563 6.848808
O -3.728898 7.804311 6.914876
C -3.052196 5.542361 6.767516
O -4.348180 5.132614 6.786107
C -2.064204 4.581161 6.592121
C 0.767715 6.186877 10.046290
O 0.600859 7.507212 9.472680
C -3.459241 4.803126 11.875988
O -3.958663 4.093476 10.720291
C -4.631880 5.449044 12.618394
O -5.858176 4.748351 12.374083
C -4.813109 6.942101 12.272381
O -6.141199 7.361702 12.564206
H -6.326099 7.359464 9.828747
H -5.673740 5.720913 9.933216
H -4.997044 6.844641 8.786439
H -4.341302 8.350377 10.697554
H -2.246648 6.505816 12.372610
H -0.451314 7.125231 11.538861
H 0.752671 4.436482 12.316377
H -0.573106 6.438569 13.792009
H 2.421066 6.046276 13.575013
H 0.919568 9.335384 12.702687
H 0.417525 8.037838 13.726988
H 3.110166 9.521490 13.863759
H 2.723519 8.145540 14.875764
H 1.436362 8.449261 16.894422
H 0.044353 9.864540 18.349330
H -1.047223 11.871780 18.517204
H -0.503289 13.580987 16.002792
H 1.417991 11.549084 13.875419
H 2.852743 6.773858 9.863463
H 3.851867 4.591625 9.556240
H 2.370710 3.758571 9.877499
H 0.609139 6.669789 6.502999
H -1.097334 8.325400 6.945463
H -3.321498 8.630020 7.245501
H -4.883595 5.943839 6.662012
H -2.376760 3.554013 6.543710
H 0.351640 5.540092 9.282915
H -0.350411 7.587047 9.272526
H -2.961518 4.050297 12.497091
H -3.232000 4.125371 10.056333
H -4.450796 5.386288 13.696045
H -5.682618 4.196836 11.578307
H -4.155538 7.531102 12.927482
H -6.671122 6.539134 12.645483
C 1.861138 -2.853238 1.883548
C 1.044832 -1.573903 1.756137
O 1.823739 -0.619660 0.992466
C 1.062144 0.540063 0.600417
O 1.936866 1.397431 -0.135278
C 1.623643 2.797930 -0.008476
C 1.618965 3.422243 -1.399546
O 0.248878 3.610281 -1.821478
C 2.384930 4.744467 -1.454461
O 1.837453 5.512791 -2.518494
C 2.752096 6.427439 -3.098050
C 3.279287 7.511361 -2.156693
C 3.890883 8.627993 -2.954854
C 5.104316 8.437596 -3.658343
C 5.644250 9.450957 -4.448017
C 4.971420 10.652372 -4.553961
O 5.422555 11.673609 -5.329256
C 3.765388 10.846958 -3.864022
O 3.076155 12.013151 -4.028112
C 3.238062 9.856460 -3.067690
O 2.232735 5.473088 -0.251586
C 2.904385 4.883249 0.857558
C 2.485062 5.684765 2.087779
O 1.085369 5.622968 2.213270
C 0.603139 6.178655 3.348425
O 1.234526 6.578688 4.295496
C -0.877500 5.979604 3.283570
C -1.557107 7.058719 2.774629
C -1.037993 8.494110 2.999270
C -1.897563 9.504174 3.475867
C -1.533529 10.862258 3.526573
C -0.246263 11.223708 3.150208
O 0.135349 12.531297 3.156308
C 0.646156 10.257849 2.745642
O 1.927536 10.563027 2.411607
C 0.248426 8.926004 2.608644
C 2.693251 3.363306 0.929862
O 2.460256 2.857512 2.239166
C -0.100442 0.140464 -0.339395
O -1.331080 0.734310 0.079895
C -0.243808 -1.373135 -0.359145
O 0.824999 -1.989910 -1.069530
C -0.318665 -1.848721 1.097481
O -0.715579 -3.218699 1.216852
H 1.566676 -3.414661 2.779293
H 2.925125 -2.637368 1.916675
H 1.735561 -3.506422 1.019355
H 0.882961 -1.157439 2.753890
H 0.704338 1.047108 1.490410
H 0.640854 2.921930 0.442454
H 2.034864 2.746819 -2.151235
H 0.308033 4.365282 -2.446743
H 3.448689 4.563574 -1.621431
H 3.581499 5.870471 -3.533609
H 2.231820 6.890638 -3.937185
H 4.032727 7.106531 -1.468700
H 2.471106 7.892506 -1.520737
H 5.621569 7.486928 -3.582072
H 6.580356 9.274792 -4.975576
H 6.150549 11.314893 -5.884298
H 3.686497 12.579095 -4.537246
H 2.299359 10.040761 -2.541270
H 3.975193 5.070058 0.726352
H 2.780110 6.735467 1.959708
H 2.943224 5.318916 3.003625
H -2.908766 9.258234 3.800863
H -2.225590 11.628342 3.828754
H -0.415245 12.995230 2.486240
H 1.980464 11.534838 2.290747
H 0.953579 8.258051 2.140142
H 3.649566 2.899126 0.646653
H 1.636229 3.246345 2.581531
H 0.105831 0.529391 -1.329793
H -2.020163 0.424932 -0.544351
H -1.147449 -1.693390 -0.864634
H 1.664050 -1.525857 -0.844700
H -1.092906 -1.270421 1.624109
H -0.543437 -3.633702 0.333704
C -4.650230 19.320190 -0.449879
C -3.654663 18.489931 0.347283
O -2.567954 18.151924 -0.518339
C -1.697795 17.151377 0.030755
O -2.190814 15.862589 -0.318806
C -1.311799 15.060140 -1.109574
C -1.879015 14.907683 -2.520708
O -1.913443 16.175862 -3.190592
C -3.247877 14.171825 -2.499866
O -4.294122 15.077161 -2.877590
C -5.583314 14.466021 -2.773861
C -6.631885 15.371760 -3.412979
C -6.885984 15.014027 -4.858188
C -6.232257 15.699348 -5.893377
C -6.469308 15.373677 -7.229823
C -7.365147 14.354593 -7.525345
O -7.582568 14.031501 -8.831433
C -8.017110 13.659133 -6.511826
O -8.872695 12.661855 -6.872337
C -7.782370 13.981999 -5.183199
O -3.552542 13.584536 -1.235837
C -2.500852 12.859931 -0.604763
C -2.270504 11.527098 -1.323815
O -3.275292 10.598033 -0.835814
C -2.801115 9.656571 0.038395
O -1.613516 9.471615 0.215436
C -3.904008 8.743105 0.527672
C -5.068038 8.903387 -0.015362
C -6.153913 9.113407 -0.916389
C -7.428908 9.472629 -0.481762
C -8.448421 9.740252 -1.413895
C -8.158295 9.615688 -2.763628
O -9.151399 9.805753 -3.686556
C -6.876941 9.290881 -3.209688
O -6.671637 9.190922 -4.550471
C -5.871180 9.034899 -2.290406
C -1.218693 13.692934 -0.426324
O -0.973484 13.887242 0.984933
C -1.542857 17.221636 1.577091
O -2.493270 16.389477 2.272132
C -1.724793 18.671251 2.001599
O -1.563940 18.802636 3.418374
C -3.120265 19.199074 1.612184
O -2.969238 20.619747 1.482529
H -4.993414 18.762744 -1.332363
H -4.194246 20.238326 -0.827971
H -5.525341 19.578716 0.155429
H -4.160675 17.554933 0.632428
H -0.721963 17.358597 -0.426788
H -0.309953 15.509689 -1.150679
H -1.179041 14.287819 -3.098631
H -2.716216 16.633815 -2.856455
H -3.231583 13.389372 -3.273104
H -5.599510 13.455883 -3.207831
H -5.826533 14.376816 -1.708414
H -6.339055 16.422881 -3.339003
H -7.582586 15.277463 -2.875746
H -5.538211 16.505737 -5.669490
H -5.977337 15.909239 -8.037436
H -8.220132 13.293052 -8.802196
H -9.207964 12.233166 -6.063393
H -8.293370 13.445398 -4.386056
H -2.897268 12.620428 0.391965
H -2.422919 11.578369 -2.402075
H -1.258045 11.132081 -1.174744
H -7.641141 9.577170 0.571475
H -9.441899 10.034783 -1.087922
H -8.743556 9.488540 -4.514802
H -5.750525 8.927726 -4.720676
H -4.869723 8.809840 -2.630776
H -0.353897 13.144089 -0.818812
H -1.691584 14.504266 1.277052
H -0.565730 16.828392 1.873986
H -2.431607 16.642761 3.211050
H -0.939432 19.282711 1.538869
H -1.671956 19.759939 3.595754
H -3.834674 19.055976 2.431646
H -3.839238 21.000356 1.261100
