384
Molecule ID: homopoly_39485
O -9.526702 2.881769 4.825588
C -10.124465 2.849758 3.756131
O -10.979415 1.894684 3.317864
C -11.090719 0.775888 4.210447
C -10.032883 -0.295623 3.937917
O -10.257493 -1.393245 4.814928
C -9.434790 -2.474246 4.710489
C -8.313742 -2.563356 3.893372
C -7.551828 -3.743180 3.878424
C -7.911902 -4.826648 4.675679
C -9.033563 -4.732505 5.496303
C -9.790569 -3.561607 5.509129
C -9.865825 3.852409 2.749947
C -9.378600 4.643979 1.834579
H -11.049563 1.080600 5.270998
H -12.095747 0.327232 4.093356
H -10.120995 -0.614377 2.891364
H -9.028010 0.129592 4.078847
H -7.992337 -1.746317 3.259523
H -6.668394 -3.792905 3.255616
H -7.317338 -5.738126 4.660250
H -9.313468 -5.576742 6.121317
H -10.652770 -3.494630 6.176016
H -9.955871 5.471237 1.456714
O -7.822021 2.462168 -1.022297
C -6.846890 3.139599 -1.361487
O -6.310044 3.124983 -2.600789
C -7.223182 2.568702 -3.584432
C -6.566782 1.608694 -4.570086
O -6.169334 0.399005 -3.922600
C -5.706312 -0.593130 -4.750383
C -5.326114 -1.776952 -4.112809
C -4.806770 -2.853829 -4.839707
C -4.675238 -2.752479 -6.224927
C -5.042443 -1.577763 -6.872067
C -5.554218 -0.501807 -6.138087
C -6.387692 4.301542 -0.513240
C -5.158744 4.714657 -0.147180
H -8.082555 2.058928 -3.132106
H -7.602525 3.435719 -4.126934
H -7.317524 1.384809 -5.339778
H -5.695993 2.075573 -5.017812
H -5.418055 -1.867022 -3.036818
H -4.516319 -3.763438 -4.324549
H -4.280468 -3.596523 -6.783562
H -4.911318 -1.497422 -7.947191
H -5.795741 0.401400 -6.684670
H -5.142069 5.606616 0.497851
O 0.825086 4.368770 -0.862690
C -0.372594 4.591565 -0.894619
O -1.041164 5.064288 -1.982838
C -0.216861 5.396342 -3.129482
C 0.534779 4.204714 -3.744256
O 0.778776 4.506255 -5.130151
C 1.454725 3.590772 -5.882930
C 1.914313 2.343866 -5.448647
C 2.618875 1.511327 -6.327259
C 2.865877 1.912298 -7.642913
C 2.391099 3.146843 -8.076202
C 1.692441 3.979025 -7.203222
C -1.320607 4.488852 0.288230
C -0.882429 4.143562 1.521709
H 0.480096 6.195908 -2.867691
H -0.893898 5.826599 -3.881041
H 1.483420 4.071824 -3.226820
H -0.067802 3.300013 -3.648980
H 1.751333 2.028165 -4.430791
H 2.984688 0.551606 -5.981853
H 3.411774 1.264591 -8.315689
H 2.574822 3.458261 -9.099685
H 1.337611 4.949715 -7.554221
H -1.610631 4.089074 2.336472
O 2.964260 0.571241 4.652857
C 1.912135 1.109315 4.319674
O 0.772664 1.067517 5.061227
C 0.833880 0.007877 6.035260
C -0.177269 0.182791 7.168507
O -0.510288 -1.059370 7.812134
C 0.506043 -1.848765 8.285364
C 0.308430 -3.220510 8.161913
C 1.274828 -4.123748 8.607977
C 2.444935 -3.649970 9.192914
C 2.644735 -2.276560 9.326693
C 1.672107 -1.370694 8.881834
C 1.741007 1.754640 2.987212
C 2.442558 1.246259 1.951380
H 1.827004 -0.047167 6.491524
H 0.661038 -0.929633 5.508057
H -1.108275 0.572555 6.757921
H 0.165894 0.919231 7.903710
H -0.608983 -3.594861 7.714077
H 1.108649 -5.193278 8.502836
H 3.199588 -4.353737 9.546985
H 3.555660 -1.905580 9.782979
H 1.849032 -0.311411 9.019199
H 2.355493 1.727991 0.988977
O 5.118155 -3.851441 2.356762
C 4.303490 -2.960115 2.533201
O 4.118550 -2.257960 3.680647
C 5.043553 -2.522493 4.759718
C 4.919878 -1.368158 5.757537
O 5.768199 -1.541806 6.896333
C 5.733203 -0.526956 7.812833
C 6.512991 -0.719463 8.956385
C 6.561547 0.248290 9.960458
C 5.828127 1.430096 9.830658
C 5.046507 1.636190 8.701459
C 4.996316 0.659815 7.696839
C 3.274346 -2.512657 1.504932
C 2.914978 -3.500257 0.654102
H 4.781757 -3.470525 5.241062
H 6.077788 -2.587506 4.392144
H 3.875992 -1.308243 6.085945
H 5.193566 -0.449356 5.230043
H 7.094708 -1.633780 9.067032
H 7.176454 0.087995 10.846179
H 5.875448 2.175324 10.612120
H 4.480595 2.553337 8.601836
H 4.374212 0.868739 6.834557
H 3.443885 -4.457684 0.733267
O 1.282214 -6.582559 -1.513404
C 0.656623 -5.788044 -2.200758
O -0.631852 -5.914907 -2.586228
C -1.298634 -7.082245 -2.071066
C -2.788451 -6.933078 -2.360313
O -2.981425 -7.061392 -3.767708
C -4.247617 -6.877163 -4.227167
C -4.391411 -7.011197 -5.614667
C -5.643478 -6.842784 -6.215322
C -6.751703 -6.533144 -5.435583
C -6.612861 -6.394452 -4.052864
C -5.364470 -6.570059 -3.451925
C 1.231624 -4.459468 -2.667001
C 0.974538 -4.225593 -3.982389
H -1.141059 -7.159476 -0.986365
H -0.896162 -7.968287 -2.573923
H -3.116461 -5.945279 -2.016252
H -3.329991 -7.724843 -1.838011
H -3.527720 -7.246261 -6.228760
H -5.744222 -6.951456 -7.294906
H -7.722900 -6.395114 -5.899577
H -7.477949 -6.144861 -3.444732
H -5.297194 -6.451199 -2.375808
H 0.376285 -5.001102 -4.462625
O -0.596560 0.821031 -3.121594
C -0.373142 0.014278 -4.023667
O -0.966808 -0.037124 -5.233778
C -2.295039 0.506776 -5.388903
C -2.484644 1.978047 -5.006975
O -3.412939 2.590154 -5.926199
C -3.874462 3.841554 -5.619843
C -3.630663 4.544212 -4.447214
C -4.213751 5.795533 -4.228984
C -5.060801 6.354433 -5.183309
C -5.324583 5.656676 -6.362794
C -4.736447 4.403776 -6.574677
C 0.760808 -0.979160 -3.925161
C 1.773367 -0.869986 -3.040276
H -2.551610 0.344251 -6.444177
H -2.976568 -0.117417 -4.801583
H -2.902433 1.997038 -3.996869
H -1.542034 2.519019 -5.038038
H -2.986996 4.145426 -3.669961
H -4.009580 6.342419 -3.314623
H -5.522370 7.328152 -5.019379
H -5.974112 6.089792 -7.117020
H -4.946630 3.866370 -7.493727
H 2.592942 -1.572482 -3.159782
O 4.145729 3.180116 -3.069190
C 4.713411 2.139937 -3.372045
O 5.829343 2.044046 -4.144887
C 6.515230 3.257356 -4.462084
C 5.883253 4.034451 -5.607126
O 6.851842 5.001668 -6.023366
C 6.528765 5.823493 -7.061081
C 5.274956 5.923398 -7.662786
C 5.067654 6.839218 -8.703025
C 6.117341 7.648140 -9.141541
C 7.364525 7.552291 -8.549577
C 7.574489 6.636789 -7.510073
C 4.314774 0.767062 -2.843331
C 5.077519 -0.288067 -3.214824
H 7.536811 2.971520 -4.742393
H 6.616314 3.891806 -3.572006
H 5.630535 3.355749 -6.436876
H 4.967819 4.528403 -5.251513
H 4.441385 5.310396 -7.333597
H 4.087348 6.912071 -9.160011
H 5.944368 8.359988 -9.948494
H 8.181782 8.181892 -8.882526
H 8.548731 6.562012 -7.044876
H 5.826840 -0.144844 -3.990240
O -7.187651 2.368287 2.319946
C -7.120712 3.575801 2.168800
O -6.327474 4.459438 2.836573
C -5.738329 3.957088 4.035011
C -4.367766 3.345683 3.781696
O -3.866215 2.745632 4.986514
C -3.065667 3.581143 5.704120
C -3.620635 4.485065 6.614442
C -2.770342 5.244039 7.430949
C -1.390737 5.100348 7.332594
C -0.850531 4.164829 6.454580
C -1.692976 3.391848 5.659882
C -8.028964 4.411787 1.334805
C -7.552851 4.914704 0.169763
H -6.392080 3.243279 4.547820
H -5.621147 4.826705 4.693755
H -3.659031 4.072722 3.353680
H -4.443625 2.557434 3.027569
H -4.700078 4.592480 6.727866
H -3.191290 5.946891 8.148564
H -0.728422 5.669963 7.976160
H 0.229767 3.995353 6.410170
H -1.289820 2.628589 5.003532
H -8.141848 5.576324 -0.461904
O -2.671041 2.371587 -1.437689
C -3.588875 2.736197 -0.736575
O -4.543882 1.945518 -0.183981
C -4.522465 0.556532 -0.554297
C -5.936343 -0.020425 -0.475207
O -5.861019 -1.448259 -0.519481
C -7.071573 -2.088241 -0.495551
C -8.324882 -1.476120 -0.588422
C -9.490171 -2.252390 -0.560620
C -9.400796 -3.634168 -0.435911
C -8.154257 -4.249989 -0.342024
C -6.994318 -3.478533 -0.379334
C -3.810579 4.147865 -0.298419
C -2.737900 4.868709 0.139337
H -3.892746 0.009736 0.144042
H -4.130790 0.403887 -1.565193
H -6.420763 0.308064 0.449250
H -6.503572 0.352531 -1.335712
H -8.436247 -0.401797 -0.690334
H -10.458875 -1.765430 -0.640652
H -10.306773 -4.229555 -0.409203
H -8.088266 -5.329185 -0.242321
H -6.024424 -3.959121 -0.315365
H -2.891879 5.887793 0.489694
O 1.312349 5.960981 1.554439
C 1.579929 4.777728 1.741171
O 2.806461 4.225984 1.799503
C 3.995549 4.990567 1.515914
C 3.931725 6.526765 1.517467
O 5.245521 7.094343 1.413089
C 5.743587 7.327130 0.161162
C 6.931215 8.064991 0.140814
C 7.551873 8.386528 -1.069452
C 6.991504 7.962943 -2.273423
C 5.810160 7.215961 -2.260684
C 5.188371 6.905472 -1.044800
C 0.482618 3.777222 1.975128
C 0.599023 2.629891 2.679750
H 4.738204 4.682812 2.260086
H 4.393864 4.628138 0.558939
H 3.257919 6.935068 0.755805
H 3.529046 6.847651 2.485681
H 7.380716 8.395711 1.072959
H 8.470869 8.967310 -1.073336
H 7.465129 8.215082 -3.218241
H 5.362318 6.901737 -3.193121
H 4.274334 6.320155 -1.089369
H -0.327791 2.107963 2.922959
O 5.545102 -0.599501 1.476078
C 4.748026 0.164217 2.013750
O 5.096788 1.225315 2.777830
C 6.507656 1.279681 3.023192
C 6.817049 2.238731 4.170829
O 8.226590 2.148740 4.429417
C 8.719689 2.857678 5.489698
C 8.005408 3.720348 6.320850
C 8.639965 4.375798 7.367389
C 10.008949 4.185047 7.596822
C 10.728689 3.325103 6.766801
C 10.085487 2.666258 5.718936
C 3.266805 0.029209 1.888719
C 2.678616 -1.169569 1.597768
H 6.898093 0.283035 3.292425
H 7.027199 1.611787 2.114359
H 6.232488 1.948603 5.051205
H 6.538447 3.261119 3.881123
H 6.939338 3.893167 6.172560
H 8.078202 5.041606 8.015281
H 10.502047 4.697868 8.413108
H 11.788333 3.169077 6.938176
H 10.654175 2.001362 5.081976
H 1.609952 -1.192221 1.403727
O -0.557093 -3.737778 -0.531407
C 0.447742 -3.952758 0.133208
O 0.450311 -4.569477 1.343728
C -0.869941 -4.982304 1.736996
C -0.847775 -5.757120 3.047965
O -2.214602 -5.921941 3.445146
C -2.456158 -6.348991 4.721550
C -1.519018 -6.884126 5.595954
C -1.919427 -7.303943 6.869975
C -3.250065 -7.186301 7.268300
C -4.193577 -6.645398 6.396850
C -3.793466 -6.226643 5.124557
C 1.838719 -3.643401 -0.348019
C 2.096512 -3.788299 -1.674399
H -1.512741 -4.097268 1.829895
H -1.306015 -5.616604 0.958556
H -0.381362 -6.736898 2.892503
H -0.268408 -5.216509 3.799110
H -0.489220 -7.011675 5.310675
H -1.189166 -7.738062 7.552636
H -3.562117 -7.533396 8.255149
H -5.226497 -6.548040 6.702570
H -4.529233 -5.807704 4.446082
H 3.098813 -3.619459 -2.041876
O 0.992575 -4.828159 -6.823805
C 1.429071 -3.743128 -6.448787
O 2.044158 -2.821954 -7.236277
C 1.546318 -2.678947 -8.596172
C 0.674736 -1.414982 -8.627783
O 0.295165 -1.058682 -9.953697
C -0.521069 0.039737 -10.040844
C -1.062730 0.303183 -11.300129
C -1.906913 1.403111 -11.503774
C -2.222732 2.247487 -10.445014
C -1.662575 2.017425 -9.192558
C -0.811570 0.922025 -8.991940
C 1.258676 -3.229025 -5.028006
C 0.995259 -1.918220 -4.999544
H 0.970575 -3.561014 -8.928563
H 2.392513 -2.575316 -9.274443
H -0.222819 -1.613563 -8.029512
H 1.247840 -0.609392 -8.164837
H -0.834716 -0.350778 -12.137327
H -2.322415 1.596245 -12.490377
H -2.900434 3.083336 -10.590851
H -1.892029 2.681939 -8.363701
H -0.392570 0.790180 -8.000964
H 1.031246 -1.341580 -5.922770
O 0.657733 1.474749 -0.548964
C 0.919104 0.374471 -0.999335
O 0.235731 -0.779387 -0.731388
C -1.105840 -0.624230 -0.218036
C -1.187267 -0.089543 1.214259
O -0.909053 -1.105160 2.180303
C -1.709527 -1.194757 3.286196
C -2.711418 -0.308670 3.683692
C -3.504714 -0.573338 4.818786
C -3.286622 -1.725415 5.567987
C -2.266993 -2.588645 5.208995
C -1.475804 -2.309049 4.091357
C 2.009293 0.084406 -1.988107
C 3.188559 0.757063 -1.880106
H -1.661406 0.036313 -0.887225
H -1.587036 -1.600541 -0.262985
H -0.457299 0.695865 1.356669
H -2.179731 0.335682 1.320431
H -2.933764 0.605014 3.144672
H -4.293340 0.114910 5.100263
H -3.923983 -1.938494 6.419861
H -2.099585 -3.488132 5.786312
H -0.666082 -2.990716 3.841658
H 3.286327 1.493727 -1.087468
O 5.728792 -2.640837 -4.806313
C 5.425276 -2.788346 -3.630517
O 5.256502 -3.967607 -2.982456
C 5.664225 -5.172379 -3.660063
C 4.984028 -6.371073 -2.998727
O 5.351514 -6.430246 -1.616902
C 4.803992 -7.433841 -0.867494
C 5.130850 -7.386843 0.487835
C 4.646740 -8.366118 1.365913
C 3.836611 -9.387130 0.884450
C 3.502751 -9.440846 -0.460891
C 3.986044 -8.463377 -1.344861
C 5.120844 -1.644999 -2.707182
C 5.223331 -1.828729 -1.424425
H 6.751269 -5.263629 -3.558648
H 5.407304 -5.135102 -4.726116
H 3.895501 -6.245503 -3.079361
H 5.298386 -7.286552 -3.510318
H 5.759473 -6.589056 0.864597
H 4.911812 -8.310463 2.411790
H 3.465329 -10.144081 1.571134
H 2.858744 -10.228949 -0.822813
H 3.694778 -8.530469 -2.383122
H 5.491396 -2.004521 -0.403064
