592
Molecule ID: homopoly_637829
O -1.955335 -7.132837 6.593254
C -1.841381 -8.018604 5.754753
O -1.960450 -9.351058 5.957704
C -2.282293 -9.778661 7.268934
C -1.070595 -9.707072 8.200978
C 0.197542 -10.356145 7.681990
C 0.198084 -11.643965 7.131101
C 1.402443 -12.261742 6.758543
C 2.608969 -11.596841 6.952480
O 3.766063 -12.232796 6.600876
C 2.615460 -10.309872 7.497023
O 3.806110 -9.663498 7.708912
C 1.418227 -9.685167 7.847543
C -1.591294 -7.731306 4.368032
C -1.443786 -7.996039 3.099486
C -1.988013 -9.338753 2.780600
C -3.366719 -9.467949 2.532018
C -3.906812 -10.720043 2.255147
C -3.052057 -11.822894 2.216611
O -3.523915 -13.077779 1.933983
C -1.682005 -11.681340 2.467820
O -0.855576 -12.766573 2.452137
C -1.130133 -10.445101 2.714685
H -3.112325 -9.184867 7.654348
H -2.619598 -10.822442 7.167162
H -1.328348 -10.234271 9.140377
H -0.880408 -8.654877 8.460189
H -0.725799 -12.208494 6.984409
H 1.393068 -13.263337 6.342107
H 4.462089 -11.582810 6.805441
H 3.583079 -8.718750 7.800089
H 1.435710 -8.688400 8.275792
H -4.018370 -8.585826 2.564024
H -4.977024 -10.806354 2.094413
H -4.443545 -12.973730 1.636887
H -1.452973 -13.536619 2.404235
H -0.064685 -10.342823 2.874004
O -0.146237 -4.443413 5.136114
C -0.102127 -5.004632 4.054931
O 0.695233 -6.047103 3.754842
C 1.722711 -6.579300 4.614366
C 2.931356 -6.840093 3.700721
C 4.037916 -7.656347 4.300782
C 4.032461 -9.059936 4.206915
C 5.101988 -9.808779 4.703782
C 6.165005 -9.153645 5.332978
O 7.198314 -9.876675 5.862270
C 6.141574 -7.764106 5.471583
O 7.082562 -7.146950 6.263726
C 5.122094 -7.014619 4.927811
C -0.971014 -4.651646 2.822740
C -0.734149 -3.314389 2.526656
C 0.368861 -3.009944 1.556867
C 0.168361 -2.195016 0.427102
C 1.170635 -2.088530 -0.547149
C 2.323940 -2.869421 -0.401723
O 3.290367 -2.867395 -1.363616
C 2.556396 -3.609737 0.744032
O 3.653827 -4.420803 0.888411
C 1.616709 -3.637794 1.742451
H 1.358463 -7.519216 5.046255
H 1.965571 -5.869774 5.399585
H 2.592190 -7.306846 2.751235
H 3.319456 -5.864234 3.377524
H 3.186509 -9.567137 3.729957
H 5.091856 -10.885140 4.620291
H 7.940830 -9.237070 5.904856
H 6.907673 -7.543966 7.137660
H 5.130245 -5.924833 5.000865
H -0.766773 -1.660728 0.276600
H 1.027267 -1.442320 -1.406208
H 4.017344 -2.362116 -0.928141
H 3.888446 -4.641741 -0.027380
H 1.871901 -4.173064 2.640239
O -5.520070 -1.228740 4.664512
C -4.440752 -0.706942 4.463703
O -3.631487 -0.176573 5.421238
C -4.026247 -0.413639 6.789869
C -5.175851 0.488521 7.239631
C -4.803751 1.903367 7.636725
C -5.526604 2.522291 8.672405
C -5.304088 3.859157 8.999571
C -4.387995 4.592696 8.259364
O -4.190838 5.918519 8.543306
C -3.675698 4.002195 7.216655
O -2.825070 4.779317 6.487853
C -3.858156 2.656649 6.926759
C -3.678542 -0.730754 3.161504
C -3.942717 0.150853 2.134780
C -2.877208 1.183355 2.029074
C -2.254564 1.493903 0.814281
C -1.611990 2.741887 0.664533
C -1.643143 3.665304 1.710575
O -1.161696 4.939654 1.656152
C -2.207352 3.322897 2.932526
O -2.207947 4.227447 3.961560
C -2.792010 2.099889 3.100927
H -3.145238 -0.305297 7.432090
H -4.348429 -1.452304 6.875294
H -5.639402 -0.007182 8.098088
H -5.946322 0.549441 6.468489
H -6.284032 1.957067 9.219436
H -5.867356 4.327619 9.794909
H -3.528172 6.182587 7.877497
H -2.513694 4.247480 5.719669
H -3.294168 2.211862 6.126174
H -2.297673 0.796135 -0.023613
H -1.120992 2.965718 -0.275189
H -0.958317 5.200166 0.731692
H -1.739478 4.990743 3.568463
H -3.333457 1.938562 4.031253
O -8.574045 -0.158862 -0.743267
C -7.596741 -0.903581 -0.715574
O -7.746242 -2.256991 -0.565244
C -9.097225 -2.692385 -0.389158
C -9.084671 -3.992524 0.425312
C -10.206395 -4.198443 1.410811
C -11.545920 -3.905612 1.101055
C -12.560447 -4.164571 2.019215
C -12.237650 -4.674520 3.268959
O -13.221641 -4.956995 4.177761
C -10.916888 -4.951851 3.602272
O -10.621592 -5.453479 4.840902
C -9.899282 -4.735489 2.679185
C -6.169698 -0.386645 -0.396482
C -5.296478 -0.232733 -1.483499
C -4.982137 -1.630451 -2.070751
C -4.646845 -1.809123 -3.414362
C -4.744064 -3.050175 -4.047883
C -5.177958 -4.159080 -3.323812
O -5.289092 -5.347036 -3.995393
C -5.427140 -4.037667 -1.970087
O -5.897500 -5.088145 -1.213646
C -5.232573 -2.805190 -1.333053
H -9.716441 -1.924126 0.085669
H -9.564673 -2.874788 -1.373145
H -8.993554 -4.859172 -0.235635
H -8.158545 -3.956004 1.014131
H -11.821967 -3.495544 0.129066
H -13.599397 -3.945651 1.784723
H -13.691693 -5.734000 3.814345
H -11.472897 -5.410172 5.327688
H -8.871700 -4.978686 2.938498
H -4.428364 -0.966009 -4.068715
H -4.535143 -3.105061 -5.110680
H -4.747842 -5.248781 -4.804244
H -6.035403 -4.770326 -0.307673
H -5.479165 -2.723811 -0.279498
O -1.185925 1.255036 -2.674326
C -2.237220 1.399819 -3.262191
O -2.642321 0.670599 -4.348715
C -1.834140 -0.434149 -4.788246
C -0.930001 -0.064740 -5.959260
C -1.578353 0.196124 -7.315452
C -0.815549 -0.083813 -8.471956
C -1.278895 0.248804 -9.748186
C -2.507699 0.869586 -9.879365
O -2.984970 1.180917 -11.129801
C -3.268181 1.162665 -8.753247
O -4.434515 1.852215 -8.941128
C -2.823506 0.802179 -7.483265
C -3.330232 2.377700 -2.904115
C -3.001947 3.706425 -2.676616
C -4.216646 4.564563 -2.395470
C -4.547328 5.610500 -3.291614
C -5.685092 6.393615 -3.088531
C -6.535539 6.082548 -2.039668
O -7.702497 6.764531 -1.815371
C -6.241426 5.012366 -1.188712
O -7.160792 4.580170 -0.274071
C -5.061546 4.297350 -1.315515
H -2.507915 -1.230810 -5.102936
H -1.248289 -0.834081 -3.951028
H -0.368196 0.824043 -5.672956
H -0.207883 -0.887130 -6.076639
H 0.166292 -0.544819 -8.375754
H -0.677957 0.021039 -10.622726
H -3.865881 1.557768 -10.951522
H -4.839755 2.029598 -8.077203
H -3.431266 1.048200 -6.620869
H -3.901115 5.829287 -4.137356
H -5.889190 7.214953 -3.779715
H -7.636291 7.608684 -2.287070
H -7.870639 5.244138 -0.294358
H -4.871556 3.485657 -0.622472
O -0.526468 6.609267 -5.118913
C 0.195424 6.760242 -4.130226
O 0.619090 7.992165 -3.768149
C 0.322640 8.991308 -4.756442
C 1.194434 8.851576 -6.009341
C 0.715781 9.726131 -7.143268
C -0.456719 9.405190 -7.855634
C -0.918401 10.249903 -8.874240
C -0.195233 11.401872 -9.179536
O -0.612647 12.298153 -10.127986
C 0.983564 11.702402 -8.487816
O 1.659459 12.851654 -8.756849
C 1.446649 10.871695 -7.481677
C 0.594054 5.611615 -3.172147
C 1.783086 5.633652 -2.447403
C 2.685184 6.833469 -2.592495
C 3.298925 7.098496 -3.831222
C 4.212686 8.138740 -3.967621
C 4.505851 8.926646 -2.856938
O 5.403448 9.960528 -2.924466
C 3.884761 8.677757 -1.634503
O 4.202306 9.436127 -0.542291
C 2.968541 7.653152 -1.485702
H 0.426506 9.971849 -4.289718
H -0.718766 8.902309 -5.039360
H 1.211781 7.816803 -6.368992
H 2.240047 9.070576 -5.767525
H -1.019317 8.500540 -7.606590
H -1.835967 9.986858 -9.394810
H -1.481058 11.988891 -10.453013
H 1.121681 13.284658 -9.447449
H 2.356741 11.134655 -6.943913
H 3.070578 6.487819 -4.709098
H 4.693703 8.290602 -4.926788
H 5.673552 10.061066 -3.857123
H 4.872838 10.056721 -0.874897
H 2.492427 7.500574 -0.530095
O 2.924181 0.458903 -1.188237
C 3.434350 1.408097 -1.751365
O 3.674485 1.477846 -3.075829
C 2.982315 0.515858 -3.882092
C 3.736256 -0.794419 -4.036292
C 3.099295 -1.623958 -5.125744
C 2.275671 -2.720422 -4.806520
C 1.608202 -3.429455 -5.818240
C 1.765932 -3.030445 -7.146554
O 1.109430 -3.652224 -8.178947
C 2.596042 -1.954842 -7.462097
O 2.740843 -1.560059 -8.761167
C 3.266329 -1.256020 -6.469311
C 3.985244 2.612626 -1.020877
C 4.903473 2.310979 -0.022312
C 5.393363 3.203053 1.086036
C 4.935970 2.908011 2.392672
C 5.532982 3.462794 3.531871
C 6.585835 4.351896 3.365486
O 7.204248 4.942729 4.431120
C 7.036445 4.684070 2.081043
O 8.079278 5.542449 1.915641
C 6.443202 4.120826 0.952588
H 1.958057 0.365762 -3.499570
H 2.872838 0.977928 -4.863065
H 3.734805 -1.332952 -3.084699
H 4.794996 -0.622173 -4.259276
H 2.148552 -3.015146 -3.759267
H 0.970756 -4.264657 -5.530226
H 0.585648 -4.374850 -7.786519
H 2.168930 -2.174919 -9.258628
H 3.903382 -0.416928 -6.744881
H 4.099595 2.219084 2.525568
H 5.134151 3.201657 4.510675
H 6.832587 4.527192 5.238853
H 8.270413 5.842175 2.831322
H 6.857749 4.350504 -0.010355
O 7.322038 -2.563267 0.960299
C 7.494039 -1.387527 0.687083
O 7.942120 -0.439781 1.562223
C 8.234122 -0.923616 2.876057
C 8.407812 0.297359 3.796304
C 8.781328 -0.103716 5.199220
C 10.059080 -0.638190 5.447228
C 10.395161 -1.119029 6.716689
C 9.441270 -1.076285 7.727926
O 9.704153 -1.607354 8.963493
C 8.193614 -0.510127 7.507027
O 7.258520 -0.499307 8.513538
C 7.854265 -0.022293 6.256370
C 7.329605 -0.705962 -0.656872
C 8.074883 -1.268151 -1.637538
C 9.261408 -0.544804 -2.227873
C 10.374547 -0.280449 -1.396390
C 11.580497 0.201762 -1.933201
C 11.659466 0.464438 -3.291231
O 12.774086 1.048516 -3.828321
C 10.558131 0.212694 -4.136479
O 10.572394 0.624422 -5.436929
C 9.375633 -0.314048 -3.601235
H 9.166001 -1.513810 2.809806
H 7.424879 -1.547956 3.236840
H 7.500392 0.907721 3.781905
H 9.193050 0.955397 3.389661
H 10.788961 -0.708232 4.654800
H 11.390037 -1.544594 6.871892
H 10.467841 -2.195720 8.858448
H 7.682100 -1.039771 9.213477
H 6.852094 0.393155 6.089406
H 10.343359 -0.534635 -0.328664
H 12.413120 0.390255 -1.254270
H 13.430789 1.110798 -3.114571
H 10.140968 1.505909 -5.380106
H 8.537492 -0.527796 -4.267254
O 0.769161 -7.533936 0.433838
C -0.367055 -7.814464 0.816622
O -1.239804 -8.648646 0.211115
C -0.846616 -9.091617 -1.085131
C 0.388678 -9.993510 -1.089846
C 1.190688 -9.869071 -2.378380
C 1.735300 -8.626006 -2.748393
C 2.523231 -8.501547 -3.898073
C 2.781188 -9.633795 -4.670092
O 3.596728 -9.582511 -5.767670
C 2.251563 -10.871097 -4.293457
O 2.557104 -11.980086 -5.029893
C 1.455049 -11.002882 -3.162491
C -1.040998 -7.112564 1.988546
C -1.054339 -5.745604 1.761433
C -1.494115 -5.464312 0.335532
C -0.598213 -5.122809 -0.698603
C -0.970394 -5.265715 -2.036598
C -2.193236 -5.833553 -2.338087
O -2.577035 -6.019296 -3.638914
C -3.057049 -6.210184 -1.318135
O -4.156391 -6.951254 -1.634733
C -2.772655 -5.931283 0.005311
H -1.689931 -9.651193 -1.520274
H -0.735804 -8.210881 -1.727514
H 0.080824 -11.032138 -0.904996
H 1.059530 -9.753430 -0.252023
H 1.553064 -7.739082 -2.132735
H 2.924647 -7.511661 -4.157328
H 3.966104 -8.679798 -5.792349
H 3.157055 -11.649454 -5.721017
H 1.083415 -11.986375 -2.873419
H 0.442111 -4.888569 -0.496266
H -0.275174 -4.996979 -2.821537
H -3.494866 -6.354425 -3.505219
H -4.811600 -6.760069 -0.933886
H -3.423217 -6.290585 0.789685
O 0.151137 -0.395726 3.094002
C -0.757003 -1.022608 3.616240
O -1.069696 -1.048651 4.941483
C -0.126676 -0.433398 5.820884
C -0.088210 1.070875 5.639748
C 0.706730 1.790706 6.701657
C 0.171886 1.962165 7.992077
C 0.884796 2.668212 8.965094
C 2.140999 3.179388 8.653973
O 2.917428 3.731525 9.633425
C 2.660904 3.050951 7.363862
O 3.902877 3.546911 7.069745
C 1.954402 2.352363 6.394119
C -1.548576 -2.138723 2.990239
C -2.897754 -2.017197 2.992205
C -3.658406 -3.295828 3.241661
C -3.568977 -3.864237 4.527637
C -4.262724 -5.033111 4.858864
C -5.085584 -5.602761 3.894155
O -5.815796 -6.724453 4.180387
C -5.196720 -5.035151 2.615632
O -6.015586 -5.596514 1.669765
C -4.471205 -3.903371 2.281013
H -0.434602 -0.708397 6.831215
H 0.846988 -0.896528 5.661795
H 0.327886 1.338375 4.660503
H -1.100256 1.470406 5.596975
H -0.810181 1.546096 8.245899
H 0.473383 2.787708 9.962953
H 3.420678 2.972436 9.985690
H 4.124635 4.098293 7.839083
H 2.371400 2.262622 5.386086
H -2.924724 -3.404168 5.281462
H -4.106077 -5.459358 5.852229
H -5.927770 -6.735384 5.151031
H -6.413290 -6.364449 2.124446
H -4.526034 -3.502608 1.285723
O -5.869515 3.057100 1.756911
C -5.694598 2.058868 2.452130
O -5.864104 2.019958 3.794683
C -6.177817 3.303936 4.389781
C -7.654299 3.741284 4.320948
C -8.139488 4.700922 3.248964
C -7.486068 5.919251 2.974980
C -8.038930 6.838972 2.076501
C -9.243094 6.558362 1.438464
O -9.786370 7.473713 0.582462
C -9.902416 5.352645 1.688703
O -11.106375 5.121006 1.068292
C -9.364058 4.441083 2.594176
C -5.304287 0.720375 1.872497
C -6.244902 0.395049 0.931353
C -7.552846 0.273310 1.723590
C -7.662763 -0.833572 2.586516
C -8.820189 -1.077115 3.321202
C -9.937434 -0.279477 3.074363
O -11.130560 -0.529927 3.701052
C -9.868668 0.794036 2.176667
O -10.989155 1.542264 1.923042
C -8.669584 1.103540 1.538154
H -6.027727 3.093945 5.462846
H -5.462256 4.081853 4.075056
H -7.850444 4.300836 5.261510
H -8.320002 2.857615 4.365467
H -6.547137 6.177170 3.476598
H -7.534895 7.776880 1.867783
H -10.631642 7.056394 0.333369
H -11.276400 4.167806 1.173777
H -9.903412 3.530203 2.860887
H -6.837178 -1.531945 2.701308
H -8.817070 -1.913472 4.019166
H -10.966546 -1.289975 4.293074
H -11.675599 1.072372 2.435193
H -8.643189 1.921319 0.816183
O -6.320892 0.233681 -4.893769
C -6.560489 0.361064 -3.694341
O -7.717871 0.027544 -3.113584
C -8.671096 -0.594622 -3.988207
C -8.238062 -2.024112 -4.318435
C -9.230574 -2.890706 -5.047718
C -8.732720 -3.930556 -5.855496
C -9.594842 -4.764122 -6.570578
C -10.969386 -4.566747 -6.460156
O -11.867716 -5.284346 -7.208805
C -11.472806 -3.576548 -5.612806
O -12.819325 -3.377719 -5.510851
C -10.614599 -2.753432 -4.901392
C -5.524091 0.833370 -2.622509
C -4.800771 1.897353 -3.150118
C -5.602949 2.753925 -4.133370
C -6.919486 3.176664 -3.788205
C -7.699400 3.899690 -4.685174
C -7.153852 4.231659 -5.918877
O -7.824524 5.054058 -6.798402
C -5.851087 3.843634 -6.256107
O -5.311525 4.251499 -7.444892
C -5.076697 3.112206 -5.377070
H -8.832470 0.031007 -4.878028
H -9.593116 -0.592506 -3.407369
H -7.309977 -1.988813 -4.901206
H -7.965958 -2.520803 -3.376178
H -7.657773 -4.097123 -5.924799
H -9.179231 -5.537272 -7.204522
H -11.359182 -5.866716 -7.795004
H -13.196439 -4.005578 -6.157119
H -11.053071 -1.985512 -4.261575
H -7.360944 2.889960 -2.825190
H -8.707638 4.175000 -4.382857
H -8.596037 5.397207 -6.319823
H -5.916002 4.964952 -7.737633
H -4.060380 2.854275 -5.647440
O -1.707791 5.829986 -0.557925
C -1.778328 5.770155 -1.771223
O -2.061890 6.812657 -2.587822
C -2.550467 7.991110 -1.926073
C -2.997253 8.956153 -3.021463
C -3.571933 10.262969 -2.560999
C -4.896335 10.321675 -2.089827
C -5.470727 11.538972 -1.764379
C -4.741345 12.713659 -1.909711
O -5.392294 13.904737 -1.725195
C -3.408426 12.665028 -2.317258
O -2.666687 13.814832 -2.408290
C -2.812610 11.447991 -2.644896
C -1.666543 4.497529 -2.608746
C -0.470316 4.471437 -3.295940
C -0.373274 3.725452 -4.616769
C 0.844011 3.117961 -4.933364
C 1.216365 2.855516 -6.258442
C 0.344907 3.191456 -7.296939
O 0.736900 2.972575 -8.581820
C -0.904465 3.741140 -7.001385
O -1.807201 4.039828 -7.980661
C -1.264433 4.005533 -5.684747
H -1.755059 8.415592 -1.317696
H -3.397583 7.722965 -1.289491
H -2.170312 9.151006 -3.699766
H -3.745554 8.456007 -3.656355
H -5.486541 9.409061 -2.001612
H -6.501274 11.591318 -1.424253
H -5.050297 14.505287 -2.407397
H -3.072018 14.436210 -1.786146
H -1.779753 11.417758 -2.996089
H 1.533376 2.923209 -4.120451
H 2.182591 2.401471 -6.471487
H 0.174902 3.560891 -9.127952
H -1.854150 3.262911 -8.569426
H -2.184801 4.562148 -5.521323
O 0.945999 5.653757 0.107259
C 1.757651 4.772809 -0.085429
O 2.568911 4.303978 0.893731
C 2.684288 5.181219 2.042180
C 1.770699 4.730353 3.182438
C 1.474686 5.738742 4.275233
C 0.517281 5.399428 5.251076
C 0.152444 6.308691 6.252097
C 0.763324 7.558294 6.280435
O 0.392691 8.518240 7.195422
C 1.750446 7.879119 5.354254
O 2.382865 9.089896 5.406530
C 2.106544 6.985990 4.357987
C 2.308589 4.542484 -1.484256
C 3.537340 3.904838 -1.636192
C 4.482656 4.413825 -2.693609
C 4.391712 4.086502 -4.064276
C 5.324956 4.564756 -4.981624
C 6.367431 5.368946 -4.536526
O 7.313058 5.767678 -5.434510
C 6.465364 5.731502 -3.195622
O 7.485221 6.560341 -2.796986
C 5.526096 5.259140 -2.274673
H 3.720876 5.132827 2.380588
H 2.556012 6.224569 1.724894
H 0.829294 4.406775 2.746237
H 2.199527 3.826320 3.630837
H 0.051072 4.415946 5.230716
H -0.604968 6.017787 6.974917
H -0.323805 8.146220 7.733821
H 2.000743 9.521709 6.186978
H 2.868094 7.283858 3.653834
H 3.597507 3.469559 -4.450804
H 5.268340 4.303863 -6.040411
H 8.017492 6.148980 -4.881291
H 7.311382 6.797024 -1.870987
H 5.556591 5.566573 -1.232740
O 4.697805 -1.269308 0.103117
C 4.878192 -0.205293 0.680166
O 4.709683 0.001730 2.002932
C 4.222908 -1.145919 2.743193
C 4.400197 -0.870561 4.235355
C 4.391497 -2.087370 5.129440
C 3.187642 -2.667911 5.560121
C 3.186657 -3.683485 6.514448
C 4.392143 -4.170221 6.999913
O 4.383598 -5.176032 7.921878
C 5.593156 -3.666199 6.508629
O 6.781554 -4.239896 6.871240
C 5.602318 -2.626786 5.584496
C 5.564687 0.953241 -0.005808
C 6.724767 0.663020 -0.655400
C 7.397819 1.729498 -1.457292
C 7.136195 1.874406 -2.835466
C 7.966490 2.676598 -3.625162
C 9.014264 3.370753 -3.032841
O 9.791370 4.185384 -3.813315
C 9.254471 3.275869 -1.665796
O 10.271629 4.031969 -1.140825
C 8.476366 2.439305 -0.882597
H 3.162333 -1.272072 2.509013
H 4.777864 -2.043663 2.439226
H 5.345268 -0.326549 4.380060
H 3.623372 -0.159478 4.557316
H 2.238094 -2.318390 5.164100
H 2.249501 -4.081574 6.879984
H 5.211006 -5.052414 8.423336
H 6.747588 -5.145239 6.489187
H 6.551095 -2.240183 5.228801
H 6.336611 1.312862 -3.323014
H 7.790312 2.775770 -4.696123
H 10.392708 4.609988 -3.172140
H 10.177079 4.014371 -0.160335
H 8.694659 2.287573 0.179899
O 6.085577 -3.632639 -3.024108
C 7.215465 -3.153326 -3.073096
O 8.187550 -3.404870 -4.018586
C 7.902587 -4.536891 -4.853211
C 8.546277 -4.369130 -6.223772
C 8.029544 -3.152820 -6.955156
C 6.757376 -3.161090 -7.544721
C 6.262139 -2.027260 -8.197611
C 7.025261 -0.856269 -8.226648
O 6.520097 0.276311 -8.803799
C 8.281342 -0.839387 -7.621886
O 9.023088 0.318105 -7.599893
C 8.791651 -1.979766 -7.011093
C 7.999843 -2.740228 -1.840934
C 9.088134 -3.433205 -1.596395
C 10.346312 -4.086478 -1.731972
C 11.111305 -3.733095 -2.865808
C 12.324520 -4.362285 -3.097216
C 12.771238 -5.308656 -2.176936
O 13.984213 -5.917749 -2.417116
C 12.019268 -5.621700 -1.029953
O 12.537166 -6.434968 -0.060630
C 10.785753 -5.024458 -0.811622
H 8.336480 -5.420367 -4.354622
H 6.827066 -4.731716 -4.954902
H 8.334513 -5.266793 -6.832226
H 9.642796 -4.305921 -6.125841
H 6.129756 -4.046881 -7.488717
H 5.275913 -2.071513 -8.658490
H 5.611135 0.085753 -9.079571
H 9.862451 0.123948 -7.140631
H 9.767754 -1.959748 -6.529839
H 10.755765 -2.956971 -3.564708
H 12.938742 -4.058731 -3.930719
H 14.660937 -5.232443 -2.258894
H 13.326120 -5.948111 0.251296
H 10.193820 -5.235935 0.081453
