1040
Molecule ID: homopoly_92212
C -5.918229 -0.972635 8.886789
C -7.207619 -0.692505 8.644261
C -7.563549 0.358517 7.670279
O -6.768036 1.053839 7.060568
O -8.910453 0.363450 7.536087
C -9.383939 1.205765 6.472824
C -10.918136 1.215614 6.497792
O -11.382057 2.163321 7.471893
C -11.502695 1.571657 5.123248
O -10.911606 2.790350 4.651695
C -10.648263 2.799572 3.308078
C -9.449000 3.383288 2.923131
C -9.066831 3.396836 1.576835
C -9.893265 2.854508 0.570113
C -9.488368 2.892781 -0.926487
C -8.713473 4.208926 -1.240554
C -10.741684 3.024989 -1.846958
C -8.635003 1.652241 -1.305970
C -9.162010 0.526338 -1.962848
C -8.340402 -0.530759 -2.406864
C -6.965245 -0.514105 -2.196638
O -6.227583 -1.486916 -2.831932
C -4.975440 -1.850269 -2.235147
C -4.068933 -2.680163 -3.193831
O -4.723939 -3.907223 -3.526698
C -3.674687 -1.923929 -4.474851
O -2.270041 -2.055535 -4.867519
C -1.884677 -3.133909 -5.605429
O -2.506645 -4.185592 -5.707607
C -0.649233 -2.923826 -6.353287
C 0.395854 -2.712863 -7.122567
C -6.446992 0.535932 -1.448205
C -7.263679 1.599825 -1.017884
C -11.106381 2.278528 0.990085
C -11.489452 2.265777 2.338168
H -5.645197 -1.749817 9.589692
H -5.119010 -0.421109 8.399942
H -8.013565 -1.227402 9.130412
H -8.992686 2.223807 6.597765
H -9.021172 0.785735 5.527644
H -11.302658 0.234639 6.809420
H -11.112686 3.047876 7.152188
H -12.585832 1.732501 5.202869
H -11.305070 0.726356 4.452538
H -8.801784 3.827054 3.677439
H -8.108011 3.846419 1.342738
H -9.308327 5.095319 -0.983787
H -7.770683 4.303839 -0.694818
H -8.473346 4.269566 -2.308684
H -10.450763 3.097951 -2.902050
H -11.430274 2.182083 -1.769320
H -11.319390 3.926856 -1.601562
H -10.226051 0.438320 -2.172139
H -8.793510 -1.364921 -2.936543
H -4.404888 -0.969912 -1.941240
H -5.198258 -2.455575 -1.345846
H -3.157438 -2.961539 -2.656946
H -5.593814 -3.674860 -3.915701
H -4.295631 -2.219554 -5.319418
H -3.813152 -0.849834 -4.322759
H 0.269625 -2.626056 -8.200830
H -5.393862 0.595300 -1.201343
H -6.792254 2.410245 -0.475012
H -11.784636 1.817951 0.275979
H -12.445253 1.821438 2.604847
C 8.917426 6.093466 11.626137
C 9.894171 5.501372 10.921896
C 10.040312 4.029906 10.921675
O 9.357377 3.256401 11.570533
O 11.083884 3.711432 10.110185
C 11.482843 2.334033 10.173709
C 10.729930 1.454475 9.173718
O 10.969369 0.078641 9.519191
C 11.197282 1.678290 7.721555
O 10.352478 0.859902 6.893051
C 10.931502 0.218919 5.836555
C 11.980854 0.702880 5.067942
C 12.493814 -0.075851 4.014220
C 11.979906 -1.351706 3.701742
C 12.598516 -2.268584 2.607592
C 14.083497 -1.896255 2.357817
C 12.640866 -3.726183 3.156688
C 11.846784 -2.248681 1.249363
C 12.254275 -3.093338 0.188822
C 11.568110 -3.141623 -1.035457
C 10.446292 -2.342044 -1.231383
O 9.720384 -2.371332 -2.399979
C 9.089336 -3.652883 -2.623746
C 7.562161 -3.482085 -2.664845
O 7.177912 -2.472697 -1.726395
C 6.965278 -3.167752 -4.046043
O 5.521209 -3.083693 -3.886979
C 4.764202 -3.238845 -5.004579
O 5.210643 -3.525072 -6.107702
C 3.285686 -3.102985 -4.718201
C 2.804460 -2.997779 -3.446628
C 10.059774 -1.458431 -0.228365
C 10.747624 -1.410728 0.994512
C 10.869455 -1.776951 4.449625
C 10.362713 -1.006791 5.500021
H 8.798253 7.170991 11.623549
H 8.207474 5.513735 12.205230
H 10.596372 6.076962 10.338815
H 12.561027 2.303562 9.963494
H 11.385546 1.947921 11.193307
H 9.649283 1.619481 9.247479
H 10.679291 -0.450986 8.756013
H 11.077518 2.723522 7.424348
H 12.251358 1.382064 7.633913
H 12.413542 1.682177 5.258733
H 13.320683 0.341163 3.450666
H 14.649542 -1.857598 3.297499
H 14.591252 -2.625800 1.716388
H 14.184579 -0.928595 1.861503
H 11.643701 -4.167915 3.238726
H 13.104123 -3.761744 4.151355
H 13.222056 -4.396010 2.513286
H 13.113914 -3.750682 0.308560
H 11.919167 -3.806503 -1.821392
H 9.468011 -4.077992 -3.557780
H 9.329343 -4.365436 -1.825625
H 7.094374 -4.401128 -2.319387
H 7.826080 -1.750916 -1.859097
H 7.227129 -3.955253 -4.761607
H 7.316502 -2.196660 -4.417752
H 3.481999 -2.906149 -2.607424
H 9.198799 -0.807939 -0.369394
H 10.387576 -0.707555 1.745225
H 10.383843 -2.726630 4.241912
H 9.522275 -1.379997 6.076178
C 2.410486 -7.868065 10.138579
C 2.611248 -8.602618 11.239739
C 2.044483 -9.949185 11.479576
O 2.297353 -10.606085 12.480184
O 1.229328 -10.325274 10.468681
C 0.694415 -11.652438 10.555105
C 0.201610 -12.076722 9.162375
O -0.815579 -13.085372 9.241919
C 1.342469 -12.620699 8.287562
O 2.539492 -11.853935 8.367869
C 2.723442 -10.797679 7.528310
C 3.968559 -10.177682 7.641166
C 4.312714 -9.091222 6.828537
C 3.413136 -8.573878 5.885675
C 3.808855 -7.414651 4.935686
C 4.658881 -8.044632 3.801294
C 4.741327 -6.381844 5.634775
C 2.570336 -6.656214 4.391077
C 2.016123 -6.942994 3.130182
C 0.884186 -6.270961 2.651001
C 0.281991 -5.282251 3.418179
O -0.803665 -4.542326 3.046242
C -1.045406 -4.428019 1.636040
C -2.029495 -3.268866 1.441315
O -3.310372 -3.691852 1.913982
C -2.191153 -2.871008 -0.017945
O -0.991131 -2.296608 -0.559049
C -1.146807 -1.218050 -1.387476
O -2.093385 -0.449691 -1.409984
C -0.028388 -1.251683 -2.431808
C 0.239859 -0.023494 -2.928030
C 0.798029 -4.997065 4.681362
C 1.917916 -5.681195 5.165445
C 2.160814 -9.214388 5.787358
C 1.815441 -10.305132 6.601294
H 1.799826 -8.228120 9.307746
H 2.879890 -6.898932 10.019254
H 3.245175 -8.247860 12.048911
H -0.142530 -11.635715 11.262930
H 1.437678 -12.365965 10.937285
H -0.247027 -11.206551 8.667754
H -1.356497 -12.909320 10.028697
H 1.604770 -13.626106 8.647233
H 1.018306 -12.793570 7.252801
H 4.685728 -10.551223 8.369328
H 5.309871 -8.674415 6.940751
H 4.133560 -8.860265 3.290989
H 4.943454 -7.300078 3.048757
H 5.586486 -8.483250 4.192020
H 4.336398 -6.042409 6.594923
H 4.897742 -5.498472 5.003350
H 5.736079 -6.795763 5.844319
H 2.450577 -7.708153 2.489918
H 0.506446 -6.555265 1.673239
H -0.120295 -4.233249 1.089286
H -1.498601 -5.363245 1.280863
H -1.714669 -2.396787 2.030646
H -3.266441 -3.687269 2.888300
H -2.421227 -3.767331 -0.608834
H -3.052465 -2.211216 -0.126822
H -0.295140 0.823136 -2.492594
H 0.337576 -4.225058 5.294385
H 2.262212 -5.431328 6.167267
H 1.421394 -8.884121 5.061746
H 0.829511 -10.736225 6.462978
C 2.634579 3.561725 12.152786
C 1.794269 4.069426 11.240080
C 1.808848 5.511742 10.914093
O 2.395883 6.380009 11.532815
O 1.042083 5.679705 9.810117
C 0.861662 7.040968 9.386860
C -0.390117 7.083301 8.501023
O -0.978781 8.393126 8.561613
C -0.070737 6.747550 7.039709
O -1.242705 6.150572 6.441363
C -1.595443 6.809926 5.301841
C -0.826232 6.719427 4.149246
C -1.156827 7.495448 3.034382
C -2.248970 8.385018 3.061296
C -2.439288 9.397534 1.908001
C -3.621745 10.373177 2.148144
C -1.172862 10.297396 1.919893
C -2.690999 8.703485 0.554577
C -3.726730 7.777704 0.406673
C -4.048868 7.233671 -0.847944
C -3.327257 7.566614 -1.991478
O -3.752257 7.004347 -3.161666
C -2.956611 7.092164 -4.364394
C -1.871522 6.009676 -4.341974
O -0.647004 6.573082 -3.853865
C -1.606957 5.274842 -5.671093
O -1.392518 3.858661 -5.388997
C -0.283115 3.250592 -5.871330
O 0.638781 3.815283 -6.441758
C -0.245839 1.772270 -5.539597
C -1.173004 0.912524 -6.022413
C -2.281917 8.452567 -1.851932
C -1.982301 9.025626 -0.605219
C -3.066956 8.373923 4.204548
C -2.746929 7.588865 5.318246
H 2.617237 2.500256 12.384678
H 3.351312 4.188133 12.680132
H 1.080394 3.442656 10.717399
H 1.754031 7.369101 8.836698
H 0.727968 7.697041 10.258593
H -1.142284 6.383010 8.881296
H -1.278526 8.529625 9.475848
H 0.247150 7.656451 6.515465
H 0.725504 6.010255 6.961885
H 0.054182 6.084282 4.135467
H -0.517689 7.450080 2.159570
H -3.676027 11.123074 1.352099
H -3.506462 10.929388 3.087795
H -4.589526 9.861922 2.182646
H -1.011535 10.741912 2.910321
H -1.250664 11.127000 1.210839
H -0.263400 9.743038 1.677969
H -4.339314 7.497912 1.255596
H -4.897762 6.565403 -0.924218
H -3.666722 6.883958 -5.170911
H -2.577896 8.105083 -4.527291
H -2.169664 5.276747 -3.597365
H -0.334622 7.255666 -4.478566
H -0.755967 5.711755 -6.203448
H -2.490504 5.323184 -6.315767
H -0.965530 -0.149480 -5.929493
H -1.698861 8.767818 -2.702221
H -1.206380 9.773928 -0.579063
H -3.942579 9.014549 4.290572
H -3.356466 7.636875 6.214321
C -14.942986 -6.434274 3.591844
C -14.207814 -6.927574 2.582872
C -14.663008 -6.791840 1.184579
O -15.756777 -6.395073 0.826532
O -13.638272 -7.174394 0.378015
C -13.927979 -7.060940 -1.029017
C -12.592902 -7.016166 -1.776822
O -11.929171 -8.279995 -1.608084
C -12.810953 -6.734823 -3.270130
O -11.566991 -6.321123 -3.847362
C -11.539547 -6.244296 -5.211157
C -12.646806 -6.073475 -6.036777
C -12.500646 -6.013918 -7.430106
C -11.239600 -6.122690 -8.037697
C -11.027701 -6.062087 -9.572985
C -12.356448 -6.029833 -10.378522
C -10.351698 -7.392923 -10.008584
C -10.205957 -4.798871 -9.929565
C -10.789153 -3.525428 -9.798074
C -10.058008 -2.356032 -10.042098
C -8.722314 -2.422151 -10.414885
O -7.930152 -1.326241 -10.645389
C -8.219718 -0.181319 -9.824191
C -7.101864 0.869641 -9.980541
O -7.317985 1.556606 -11.231031
C -7.119274 1.905424 -8.838995
O -6.295643 1.527957 -7.712920
C -5.406353 2.478093 -7.321468
O -5.186792 3.541636 -7.885171
C -4.774543 2.166732 -6.001846
C -5.519446 2.632283 -4.971014
C -8.134405 -3.668980 -10.587046
C -8.861154 -4.845531 -10.335517
C -10.131517 -6.273316 -7.181922
C -10.276837 -6.324447 -5.791325
H -15.882160 -5.921488 3.410656
H -14.605000 -6.516901 4.618337
H -13.261478 -7.418540 2.766785
H -14.504403 -7.946525 -1.324572
H -14.502442 -6.150977 -1.236115
H -11.929933 -6.259078 -1.339174
H -11.868782 -8.430137 -0.646426
H -13.538205 -5.922524 -3.383365
H -13.166239 -7.647079 -3.767180
H -13.643156 -5.973016 -5.624132
H -13.401342 -5.887388 -8.023401
H -12.989289 -5.169146 -10.140007
H -12.957596 -6.928495 -10.193651
H -12.157798 -5.987635 -11.455846
H -10.983009 -8.254053 -9.748257
H -10.190862 -7.418804 -11.092937
H -9.380938 -7.563154 -9.531152
H -11.821967 -3.417375 -9.470708
H -10.554793 -1.404023 -9.908156
H -8.284505 -0.499699 -8.780527
H -9.174409 0.261051 -10.133271
H -6.123968 0.389806 -10.053887
H -8.065537 2.167045 -11.108339
H -6.846156 2.889924 -9.241942
H -8.135431 2.001498 -8.447250
H -6.567162 2.881200 -5.168653
H -7.088297 -3.733564 -10.878869
H -8.332894 -5.790243 -10.451680
H -9.123521 -6.347415 -7.590557
H -9.399019 -6.434765 -5.160436
C 1.903305 -4.516924 14.163897
C 1.607956 -4.645444 12.869226
C 0.313297 -4.163972 12.335441
O -0.547915 -3.590611 12.977655
O 0.263760 -4.477092 11.016612
C -0.960925 -4.085349 10.364977
C -0.820071 -4.342424 8.858172
O 0.346762 -3.669654 8.358229
C -0.720408 -5.840640 8.517043
O -1.971229 -6.519545 8.663942
C -2.869089 -6.427588 7.637043
C -2.699068 -5.736805 6.443522
C -3.742811 -5.652826 5.523100
C -5.006168 -6.232622 5.769564
C -6.176050 -5.965954 4.785613
C -5.929800 -6.870296 3.554859
C -7.567200 -6.342705 5.351035
C -6.237260 -4.454761 4.445354
C -6.213917 -3.957722 3.134185
C -6.079357 -2.580072 2.878562
C -5.982752 -1.684219 3.933435
O -5.754721 -0.345368 3.860341
C -5.832832 0.319447 2.605117
C -4.428201 0.618841 2.057891
O -4.118713 -0.305507 1.007103
C -4.365395 2.064231 1.538204
O -3.702933 2.110553 0.266712
C -3.958227 3.275383 -0.387652
O -4.563333 4.228288 0.080721
C -3.369855 3.208300 -1.738763
C -2.055104 3.463855 -1.933593
C -6.075124 -2.160641 5.233733
C -6.225050 -3.520444 5.496817
C -5.139246 -6.984390 6.941820
C -4.084692 -7.078835 7.856689
H 1.216027 -4.049625 14.865550
H 2.850233 -4.872493 14.557983
H 2.295962 -5.112186 12.174773
H -1.806263 -4.644794 10.785113
H -1.112417 -3.011235 10.526529
H -1.685399 -3.899997 8.359201
H 0.985380 -3.627768 9.094676
H -0.280652 -6.013911 7.528994
H -0.023541 -6.326154 9.209709
H -1.776046 -5.218124 6.200720
H -3.576204 -5.083726 4.612684
H -5.859130 -7.924565 3.848617
H -4.995545 -6.618765 3.037653
H -6.743744 -6.794247 2.823207
H -7.783575 -5.828053 6.294433
H -7.653123 -7.419425 5.536521
H -8.365741 -6.073914 4.647032
H -6.229330 -4.620726 2.270778
H -5.995296 -2.265951 1.844201
H -6.364080 1.248865 2.835945
H -6.446398 -0.206635 1.866876
H -3.671254 0.474941 2.835201
H -3.432387 0.116312 0.448784
H -3.815298 2.681869 2.263775
H -5.375848 2.478799 1.452219
H -1.693733 3.276854 -2.944967
H -5.995301 -1.459675 6.059391
H -6.256349 -3.847824 6.533082
H -6.066592 -7.502930 7.180434
H -4.210075 -7.649754 8.769116
C -5.434539 5.051947 4.407026
C -5.692969 5.654559 3.236018
C -6.925817 6.453148 3.050730
O -7.813499 6.568633 3.878522
O -6.906986 7.008751 1.810410
C -8.100530 7.736570 1.484885
C -8.094950 8.164729 0.008165
O -9.426262 8.557664 -0.364615
C -7.134206 9.341238 -0.252144
O -7.008456 9.549444 -1.668654
C -5.965172 10.320239 -2.103902
C -5.735099 10.304840 -3.477002
C -4.657903 11.006445 -4.041252
C -3.773874 11.760450 -3.247609
C -2.549188 12.527017 -3.822506
C -2.658971 14.025418 -3.415091
C -2.564228 12.572195 -5.379752
C -1.220688 11.887876 -3.315783
C -0.595221 10.837097 -4.017246
C 0.522662 10.166953 -3.498349
C 1.021150 10.518535 -2.253808
O 2.041263 9.790793 -1.700622
C 1.518655 8.652069 -0.973791
C 2.686769 7.852971 -0.387097
O 3.341916 7.134898 -1.439500
C 2.297455 6.922660 0.775208
O 1.195622 6.032359 0.491281
C 1.078343 5.060243 1.450337
O 1.807954 4.987428 2.429071
C -0.090849 4.147118 1.278825
C -0.208325 2.944156 1.891399
C 0.498082 11.612909 -1.579031
C -0.618705 12.285475 -2.103103
C -4.053132 11.795845 -1.866642
C -5.138583 11.102772 -1.307022
H -6.109568 5.131177 5.257097
H -4.521068 4.481678 4.547320
H -5.008309 5.577469 2.399361
H -8.185451 8.616078 2.136411
H -8.973243 7.095641 1.667738
H -7.811539 7.318359 -0.628128
H -9.995188 7.771805 -0.254563
H -7.541514 10.253591 0.197509
H -6.159241 9.112445 0.186710
H -6.394488 9.725635 -4.121331
H -4.539603 10.936631 -5.118930
H -2.703172 14.188336 -2.334473
H -1.804494 14.599149 -3.791814
H -3.566280 14.481542 -3.828863
H -2.570238 11.580704 -5.843220
H -3.452714 13.095896 -5.755926
H -1.687216 13.104745 -5.769396
H -0.986985 10.487046 -4.968574
H 0.975288 9.348952 -4.049925
H 0.898785 9.018233 -0.154764
H 0.929991 8.018057 -1.648566
H 3.437253 8.558264 -0.013521
H 3.412332 6.188480 -1.180709
H 3.188237 6.328809 1.032538
H 2.015132 7.536341 1.637021
H -1.121033 2.375543 1.687704
H 0.918975 11.921122 -0.628037
H -1.026589 13.102857 -1.515931
H -3.414522 12.356680 -1.189087
H -5.302599 11.180847 -0.239668
C 13.395450 8.500813 2.090925
C 13.025038 7.438702 2.820314
C 13.763384 7.049474 4.035947
O 14.638383 7.714391 4.568755
O 13.284228 5.856217 4.454016
C 13.850965 5.312703 5.660057
C 14.736018 4.123972 5.300319
O 14.970808 3.325936 6.468243
C 16.085791 4.565478 4.691332
O 16.643351 3.534627 3.847791
C 15.966308 3.435021 2.659719
C 15.372229 2.214718 2.374746
C 14.512891 2.105905 1.283814
C 14.272154 3.191095 0.423203
C 13.189361 3.054295 -0.676489
C 13.226366 4.212063 -1.699808
C 13.486601 1.759920 -1.488127
C 11.764707 3.050282 -0.057179
C 10.719929 2.289515 -0.594033
C 9.424745 2.374971 -0.060554
C 9.125987 3.208560 1.020583
O 7.811183 3.223657 1.371354
C 7.406861 3.876777 2.590708
C 5.873027 3.760742 2.604852
O 5.350094 4.601145 1.557488
C 5.181865 4.119098 3.927773
O 3.940464 3.372029 3.973902
C 2.919664 3.862654 4.732237
O 2.966561 4.866301 5.421581
C 1.711586 2.956307 4.584640
C 0.796929 2.708687 5.536488
C 10.150773 3.950233 1.584489
C 11.450102 3.875417 1.045284
C 14.980006 4.382576 0.670310
C 15.825574 4.500486 1.777905
H 12.829784 8.796433 1.215142
H 14.265950 9.088338 2.356029
H 12.153273 6.846951 2.555871
H 13.012996 4.979542 6.286373
H 14.395889 6.061089 6.251870
H 14.180376 3.483935 4.611221
H 15.498288 2.560512 6.166409
H 16.023974 5.510777 4.147480
H 16.811593 4.717688 5.499114
H 15.518102 1.364677 3.035932
H 13.982153 1.171752 1.131353
H 12.974677 5.177738 -1.247250
H 12.507947 4.044186 -2.512641
H 14.215797 4.307819 -2.162164
H 12.877114 1.697711 -2.399045
H 14.535625 1.728160 -1.809007
H 13.284386 0.848423 -0.912351
H 10.865744 1.638896 -1.453548
H 8.632153 1.798366 -0.523352
H 7.851007 3.353342 3.445657
H 7.713999 4.929596 2.582771
H 5.585540 2.749208 2.311798
H 5.866158 4.394210 0.755963
H 4.988651 5.194729 4.007421
H 5.783685 3.783568 4.777566
H -0.011620 2.019411 5.277412
H 9.976472 4.627617 2.413965
H 12.219111 4.497516 1.497223
H 14.862481 5.257990 0.036737
H 16.345664 5.438542 1.957778
C 2.790159 13.380634 2.572248
C 3.330380 12.982666 3.731150
C 4.484698 12.066006 3.857004
O 4.870147 11.632642 4.937023
O 5.012461 11.763718 2.651176
C 6.114258 10.828395 2.661066
C 5.615641 9.420019 3.038533
O 6.140001 9.039129 4.314132
C 5.965455 8.386070 1.962248
O 7.369859 8.342015 1.689970
C 7.730800 7.843335 0.463168
C 9.096604 7.886304 0.185985
C 9.591074 7.479180 -1.064095
C 8.722748 7.032693 -2.075867
C 9.206840 6.689202 -3.508376
C 8.701424 7.854908 -4.404665
C 10.747213 6.662208 -3.649559
C 8.710401 5.307709 -4.014267
C 8.557256 5.048542 -5.388597
C 8.124499 3.800053 -5.861454
C 7.834336 2.774316 -4.967799
O 7.430099 1.523759 -5.362942
C 6.292873 1.567785 -6.249617
C 5.715450 0.155420 -6.385603
O 6.629500 -0.629418 -7.175444
C 4.342549 0.169364 -7.071411
O 3.650666 -1.046834 -6.718073
C 2.321596 -1.086850 -6.964844
O 1.658305 -0.189240 -7.470823
C 1.718407 -2.401916 -6.591502
C 2.328667 -3.319362 -5.812719
C 8.027093 2.986767 -3.605377
C 8.469219 4.234964 -3.136424
C 7.351302 6.975293 -1.769107
C 6.868636 7.355842 -0.514132
H 1.934636 14.052660 2.568967
H 3.173000 13.060198 1.608078
H 2.920703 13.314907 4.678044
H 6.900066 11.192556 3.333756
H 6.516961 10.851802 1.643181
H 4.524047 9.414041 3.136573
H 5.793700 9.696021 4.955899
H 5.640957 7.387920 2.277078
H 5.405187 8.694633 1.075306
H 9.784520 8.245765 0.943219
H 10.662167 7.544198 -1.221338
H 7.610069 7.844424 -4.517823
H 9.136540 7.822307 -5.412206
H 8.979826 8.828056 -3.978137
H 11.053893 6.407474 -4.671525
H 11.197168 5.920994 -2.984320
H 11.195858 7.635533 -3.423944
H 8.787002 5.807278 -6.130308
H 8.039522 3.643889 -6.930309
H 5.533801 2.218702 -5.809878
H 6.596551 1.942797 -7.229359
H 5.653428 -0.323492 -5.405560
H 7.430447 -0.712148 -6.632878
H 3.751687 1.028444 -6.743351
H 4.447029 0.194061 -8.159560
H 1.899109 -4.319155 -5.800957
H 7.826673 2.182351 -2.903640
H 8.623030 4.356452 -2.065845
H 6.631305 6.625886 -2.511778
H 5.802688 7.258596 -0.346859
C 4.842777 -8.798812 -9.980691
C 6.049721 -8.222873 -10.125035
C 7.335003 -8.841560 -9.748695
O 8.387817 -8.224550 -9.783482
O 7.170791 -10.133592 -9.356358
C 8.361532 -10.759757 -8.865426
C 8.120468 -12.265116 -8.709830
O 9.290597 -12.887400 -8.161079
C 6.904331 -12.600327 -7.835489
O 7.115177 -12.072579 -6.514733
C 6.117638 -12.421920 -5.643593
C 4.771247 -12.185333 -5.895515
C 3.806074 -12.574749 -4.961436
C 4.156619 -13.206723 -3.752058
C 3.046024 -13.663758 -2.771608
C 2.091066 -14.624678 -3.538654
C 3.585281 -14.533457 -1.598084
C 2.318609 -12.432538 -2.180354
C 2.968203 -11.619505 -1.238212
C 2.367847 -10.470325 -0.719829
C 1.102375 -10.073831 -1.150765
O 0.682045 -8.878245 -0.646972
C -0.410867 -8.197398 -1.268515
C -0.209603 -7.759380 -2.739066
O 1.127948 -7.949722 -3.182308
C -0.741703 -6.338004 -3.016809
O 0.043132 -5.257287 -2.462346
C 1.095323 -4.860792 -3.236549
O 1.667322 -5.617121 -4.007334
C 1.424904 -3.368888 -3.103275
C 0.363964 -2.606653 -2.795468
C 0.416526 -10.887738 -2.044108
C 1.020504 -12.044104 -2.560935
C 5.530692 -13.371366 -3.494784
C 6.501052 -12.974393 -4.427159
H 4.723876 -9.803764 -9.601835
H 3.941891 -8.266022 -10.261870
H 6.130911 -7.210340 -10.507168
H 9.195656 -10.602998 -9.560998
H 8.643314 -10.313871 -7.903023
H 7.958704 -12.696871 -9.702423
H 9.239652 -12.755418 -7.193678
H 6.802907 -13.690214 -7.765747
H 6.004030 -12.182228 -8.300459
H 4.451932 -11.682622 -6.800659
H 2.763902 -12.367091 -5.191308
H 2.637027 -15.494932 -3.924970
H 1.603713 -14.156111 -4.399505
H 1.294621 -14.997728 -2.882892
H 2.769390 -14.833318 -0.926132
H 4.062098 -15.450876 -1.969479
H 4.328019 -14.017634 -0.981422
H 3.975719 -11.861133 -0.905106
H 2.911163 -9.850028 -0.011562
H -1.330684 -8.789734 -1.162470
H -0.589560 -7.308184 -0.652388
H -0.826516 -8.429839 -3.351821
H 1.370909 -7.248896 -3.821968
H -1.749705 -6.233394 -2.600478
H -0.831144 -6.177015 -4.097595
H -0.576068 -3.169801 -2.760946
H -0.579575 -10.634828 -2.387643
H 0.452040 -12.619010 -3.285778
H 5.884654 -13.813101 -2.567563
H 7.554838 -13.114695 -4.196599
C 12.835808 9.818310 6.774339
C 11.649168 9.403131 7.240797
C 10.805063 8.470111 6.463968
O 11.089570 7.985217 5.381853
O 9.671964 8.255741 7.175706
C 8.708324 7.366603 6.573170
C 8.065349 6.560511 7.702558
O 7.385371 7.462726 8.585737
C 7.072197 5.515978 7.191894
O 6.907066 4.520754 8.218594
C 6.619197 3.274348 7.739085
C 5.477735 2.645740 8.225545
C 5.131462 1.362389 7.780502
C 5.937405 0.674807 6.858626
C 5.601910 -0.744396 6.336371
C 4.132806 -1.167731 6.604289
C 6.481073 -1.731150 7.142313
C 5.812817 -0.816316 4.803172
C 6.705500 -1.694626 4.173625
C 6.876435 -1.664447 2.780291
C 6.166661 -0.773856 1.975888
O 6.434936 -0.843744 0.636765
C 6.029632 0.250382 -0.203172
C 4.871393 -0.200523 -1.106133
O 5.386484 -0.740877 -2.325638
C 3.948304 0.952196 -1.468567
O 2.744426 0.436889 -2.082272
C 2.680308 0.515998 -3.434000
O 3.603585 0.768490 -4.192694
C 1.230541 0.464484 -3.861895
C 0.989638 1.267189 -4.931391
C 5.242844 0.064759 2.585385
C 5.087660 0.058609 3.977106
C 7.121520 1.310713 6.433538
C 7.465660 2.592141 6.873197
H 13.217247 9.482319 5.815411
H 13.459277 10.501075 7.342994
H 11.280420 9.738308 8.199786
H 9.175538 6.677237 5.856644
H 7.966797 7.987441 6.060985
H 8.850441 6.079342 8.299207
H 8.028905 8.149162 8.837509
H 6.088869 5.960284 7.007871
H 7.441165 5.084991 6.254661
H 4.850469 3.155257 8.953251
H 4.223894 0.917884 8.177841
H 3.924513 -1.258819 7.676784
H 3.916088 -2.143150 6.154760
H 3.409392 -0.454804 6.192247
H 6.276914 -2.771682 6.867117
H 6.294690 -1.638533 8.220433
H 7.549701 -1.549302 6.992327
H 7.299220 -2.401758 4.741986
H 7.591358 -2.334294 2.316357
H 5.795764 1.159319 0.365707
H 6.891355 0.481600 -0.830518
H 4.303819 -1.010175 -0.654242
H 5.849181 -1.575231 -2.087661
H 4.452212 1.680243 -2.118396
H 3.620669 1.476228 -0.564819
H 1.845143 1.682514 -5.466003
H 4.606055 0.733981 2.022271
H 4.383846 0.752767 4.428099
H 7.799255 0.808929 5.745599
H 8.401651 3.031554 6.540536
C -9.131175 -0.461177 2.460798
C -9.674208 -1.648832 2.750970
C -9.955976 -2.590190 1.655026
O -9.406487 -2.590467 0.564794
O -11.000487 -3.370520 2.036893
C -11.557597 -4.192286 1.004999
C -12.788403 -3.541234 0.359288
O -13.888786 -3.566173 1.276863
C -12.542337 -2.091160 -0.085484
O -13.637872 -1.662065 -0.923742
C -13.182014 -1.389323 -2.182958
C -13.214159 -0.076866 -2.645345
C -12.660725 0.236313 -3.888665
C -12.071352 -0.754752 -4.694123
C -11.431617 -0.457288 -6.068084
C -12.391998 -1.046042 -7.135976
C -11.368456 1.059472 -6.402883
C -10.000927 -1.055848 -6.167766
C -8.857110 -0.339561 -5.768140
C -7.564431 -0.869271 -5.931527
C -7.395950 -2.122741 -6.504113
O -6.162107 -2.640017 -6.791262
C -5.539517 -1.877332 -7.838252
C -4.286162 -2.604771 -8.347888
O -4.651930 -3.513984 -9.393981
C -3.251781 -1.605269 -8.881230
O -2.749427 -0.806055 -7.782532
C -2.869295 0.539103 -7.908126
O -3.301246 1.135830 -8.876370
C -2.468091 1.196105 -6.631093
C -3.364701 1.865153 -5.881265
C -8.499351 -2.892412 -6.811519
C -9.786407 -2.364215 -6.641172
C -12.138085 -2.085723 -4.228023
C -12.696386 -2.403405 -2.998037
H -8.909717 0.264407 3.237351
H -8.875347 -0.194085 1.439015
H -9.938447 -1.927678 3.762964
H -11.847444 -5.134711 1.480332
H -10.811342 -4.434466 0.241243
H -13.096392 -4.148107 -0.492352
H -14.619093 -3.079487 0.839143
H -11.575369 -1.987986 -0.589756
H -12.531951 -1.422491 0.781004
H -13.642735 0.705380 -2.025927
H -12.687579 1.275203 -4.204821
H -13.374941 -0.565457 -7.069167
H -12.570928 -2.119854 -7.018098
H -12.006719 -0.877601 -8.145980
H -12.371014 1.493509 -6.502873
H -10.850388 1.223335 -7.355701
H -10.850224 1.644282 -5.634697
H -8.946131 0.650889 -5.321581
H -6.707605 -0.284629 -5.610175
H -5.273591 -0.896179 -7.435001
H -6.237363 -1.753336 -8.667873
H -3.854121 -3.197116 -7.537525
H -3.936890 -4.168714 -9.483924
H -3.687093 -1.004417 -9.688196
H -2.400873 -2.144021 -9.317967
H -2.965801 2.185055 -4.933541
H -8.367587 -3.884620 -7.233055
H -10.612877 -3.013252 -6.917228
H -11.738428 -2.906080 -4.819127
H -12.724965 -3.438282 -2.674170
C -16.767804 -5.746986 -4.173182
C -16.515063 -5.358616 -5.429248
C -16.575283 -3.932914 -5.809445
O -16.955234 -3.025833 -5.085108
O -16.125398 -3.814943 -7.084631
C -16.122560 -2.459315 -7.573472
C -15.475591 -2.462476 -8.957782
O -16.292935 -3.236439 -9.851580
C -15.312583 -1.041636 -9.512974
O -14.342319 -1.096733 -10.565572
C -13.668604 0.053798 -10.858938
C -14.077307 1.345196 -10.547785
C -13.276504 2.443934 -10.905734
C -12.048363 2.281992 -11.580609
C -11.192810 3.504663 -12.013443
C -12.127604 4.641589 -12.518291
C -10.300391 3.121231 -13.232838
C -10.313156 4.107120 -10.881765
C -10.469647 3.786454 -9.522061
C -9.737617 4.448743 -8.516973
C -8.818771 5.438786 -8.849786
O -8.093039 6.202971 -7.981775
C -8.034987 5.802334 -6.608521
C -7.098525 6.791933 -5.892129
O -7.708067 8.086831 -5.874026
C -6.773129 6.351348 -4.462723
O -5.936113 5.188765 -4.545491
C -5.646005 4.561004 -3.380399
O -5.948351 4.942724 -2.266159
C -5.037901 3.225098 -3.693057
C -4.158835 2.639877 -2.853616
C -8.620021 5.743405 -10.193334
C -9.353180 5.090342 -11.189796
C -11.658704 0.964189 -11.874457
C -12.473016 -0.126035 -11.544311
H -17.034174 -5.033202 -3.396418
H -16.730239 -6.797642 -3.893544
H -16.257352 -6.074021 -6.200222
H -17.160601 -2.110249 -7.634718
H -15.552063 -1.823961 -6.885552
H -14.504845 -2.972428 -8.917760
H -16.408241 -4.108431 -9.437269
H -16.256322 -0.669754 -9.924222
H -14.967067 -0.378448 -8.710988
H -15.022653 1.537611 -10.049772
H -13.640734 3.434604 -10.643876
H -12.832546 4.272221 -13.271999
H -11.562668 5.461135 -12.980661
H -12.706997 5.094963 -11.705464
H -10.886467 2.621703 -14.014231
H -9.841003 3.993594 -13.711433
H -9.479009 2.457157 -12.942157
H -11.187143 3.035501 -9.207218
H -9.935366 4.183397 -7.483149
H -7.648319 4.780608 -6.542000
H -9.036150 5.862737 -6.170933
H -6.165780 6.880250 -6.461219
H -7.936511 8.291198 -6.802460
H -7.696854 6.116681 -3.916202
H -6.255946 7.148533 -3.919796
H -3.840105 1.617613 -3.062662
H -7.900493 6.509441 -10.472657
H -9.173924 5.402111 -12.216771
H -10.726562 0.739931 -12.388264
H -12.161326 -1.130099 -11.822896
C 0.706597 11.688840 -10.878454
C 1.979462 12.108570 -10.910716
C 2.957167 11.610353 -9.923123
O 2.708423 10.806565 -9.038661
O 4.161191 12.179183 -10.185152
C 5.234158 11.643982 -9.406104
C 6.593948 12.006815 -10.021867
O 7.643858 11.296670 -9.348867
C 6.704390 11.818917 -11.554347
O 5.943129 10.737400 -12.104197
C 6.292949 9.473200 -11.738826
C 7.592327 9.030587 -11.513539
C 7.817026 7.739825 -11.016436
C 6.745883 6.867037 -10.762097
C 6.918226 5.479669 -10.097103
C 6.587459 4.416748 -11.176224
C 8.376187 5.180598 -9.656021
C 6.030639 5.398030 -8.826694
C 5.029884 4.429169 -8.651891
C 4.235835 4.409199 -7.492609
C 4.444786 5.340930 -6.478433
O 3.742713 5.367579 -5.301032
C 3.627331 4.072639 -4.699600
C 3.012226 4.169175 -3.298101
O 3.933269 4.895289 -2.468906
C 1.630320 4.838150 -3.278144
O 0.538749 3.971912 -2.888393
C 0.484927 3.696224 -1.554962
O 1.485139 3.526153 -0.860415
C -0.948342 3.834494 -1.037508
C -1.095564 4.343536 0.214309
C 5.395421 6.334001 -6.650562
C 6.182822 6.361488 -7.807627
C 5.449306 7.311622 -11.083580
C 5.227846 8.597934 -11.565545
H 0.361221 10.983129 -10.132410
H -0.016397 12.041598 -11.604368
H 2.328423 12.808614 -11.658592
H 5.182220 12.057819 -8.391281
H 5.147272 10.554775 -9.306060
H 6.795732 13.064861 -9.821488
H 7.375830 10.359907 -9.279584
H 6.284970 12.719634 -12.023063
H 7.746557 11.768688 -11.887867
H 8.445986 9.678792 -11.690811
H 8.845939 7.455943 -10.809402
H 7.235587 4.532197 -12.055171
H 5.553524 4.483826 -11.530510
H 6.741817 3.399621 -10.794771
H 8.752788 5.910053 -8.927469
H 8.445055 4.188412 -9.191620
H 9.066954 5.180207 -10.509245
H 4.825199 3.682150 -9.417855
H 3.441869 3.671362 -7.422876
H 3.007573 3.430073 -5.316778
H 4.629334 3.647891 -4.592648
H 2.943691 3.166896 -2.883459
H 4.121899 5.737874 -2.945475
H 1.379927 5.190261 -4.280610
H 1.614842 5.717627 -2.616813
H -2.062239 4.650249 0.598784
H 5.534681 7.093636 -5.888060
H 6.915678 7.161202 -7.915198
H 4.589360 6.671630 -10.904075
H 4.211981 8.927735 -11.764717
C 9.180724 -4.865570 1.726169
C 8.652981 -5.553125 2.744344
C 9.400475 -6.715574 3.264612
O 10.612216 -6.818783 3.311729
O 8.503045 -7.702418 3.493278
C 9.047529 -9.039248 3.406295
C 9.365607 -9.369475 1.936448
O 10.633381 -8.829332 1.521075
C 9.375375 -10.893328 1.679546
O 9.527845 -11.268809 0.293965
C 8.664671 -10.600553 -0.532657
C 9.216782 -9.756647 -1.491111
C 8.393745 -8.924034 -2.247898
C 7.000946 -8.932258 -2.064374
C 6.046579 -7.946555 -2.782488
C 6.778873 -6.985730 -3.753964
C 5.098295 -8.778866 -3.688503
C 5.308838 -7.081985 -1.722364
C 6.030892 -6.267359 -0.828597
C 5.381804 -5.462522 0.119425
C 3.995232 -5.489345 0.210386
O 3.347688 -4.752561 1.168197
C 3.080271 -3.438079 0.666959
C 2.376527 -2.584458 1.738260
O 3.203472 -2.478410 2.894860
C 2.091194 -1.202076 1.153312
O 1.505625 -0.268030 2.071188
C 0.981568 0.821261 1.436750
O 0.629577 0.829864 0.263548
C 0.831336 2.025460 2.341120
C 1.650205 2.076963 3.406066
C 3.263826 -6.328074 -0.613240
C 3.913808 -7.104743 -1.579139
C 6.465935 -9.856372 -1.145565
C 7.284303 -10.695425 -0.392012
H 10.158988 -5.118368 1.315365
H 8.651005 -4.047644 1.254686
H 7.668540 -5.350429 3.144447
H 9.923955 -9.125051 4.062276
H 8.266037 -9.697512 3.794014
H 8.610703 -8.868829 1.325015
H 11.011678 -8.310242 2.263720
H 10.240138 -11.328068 2.194163
H 8.481257 -11.381593 2.089037
H 10.296117 -9.699552 -1.596556
H 8.871886 -8.249774 -2.951449
H 7.267495 -7.534934 -4.570041
H 6.078571 -6.277096 -4.211909
H 7.555248 -6.398137 -3.254754
H 5.670685 -9.373441 -4.412046
H 4.474404 -9.479610 -3.122889
H 4.423275 -8.129787 -4.262767
H 7.118657 -6.253657 -0.859237
H 5.963818 -4.834545 0.785489
H 2.433432 -3.505547 -0.215719
H 4.030482 -2.968224 0.396780
H 1.449673 -3.043903 2.072791
H 3.416781 -3.390304 3.165271
H 3.033710 -0.745275 0.866688
H 1.469993 -1.326232 0.264000
H 2.405272 1.291968 3.506278
H 2.184545 -6.396489 -0.517062
H 3.300057 -7.752054 -2.197107
H 5.392718 -9.891583 -0.984980
H 6.842732 -11.379161 0.325135
C -5.353233 -12.571935 8.428113
C -4.945982 -11.551320 9.204711
C -5.839986 -10.411240 9.469386
O -6.973983 -10.274736 9.031979
O -5.207549 -9.554287 10.312143
C -5.975438 -8.402172 10.736805
C -6.926829 -8.777356 11.888325
O -8.019629 -9.601115 11.451841
C -7.484274 -7.536238 12.612021
O -7.749837 -6.477880 11.674357
C -7.617332 -5.245388 12.255374
C -6.682173 -4.373291 11.718494
C -6.462206 -3.129155 12.322234
C -7.198627 -2.712216 13.447050
C -6.875231 -1.386553 14.182630
C -8.138407 -0.767568 14.848421
C -5.921117 -1.768461 15.341942
C -6.264994 -0.301142 13.249994
C -7.064412 0.346183 12.287386
C -6.530477 1.318282 11.430028
C -5.179871 1.659086 11.482713
O -4.765041 2.559482 10.532744
C -3.369016 2.879592 10.474596
C -2.544266 1.752702 9.828511
O -1.264006 1.712103 10.460685
C -2.451449 1.875029 8.293267
O -1.422496 2.768006 7.821024
C -0.177619 2.225147 7.791962
O 0.146258 1.162050 8.313519
C 0.751104 3.047506 6.962245
C 1.783908 3.536790 7.584006
C -4.379576 1.049391 12.446014
C -4.911654 0.079907 13.308761
C -8.168189 -3.607145 13.942047
C -8.385056 -4.858153 13.350650
H -4.711516 -13.424623 8.259850
H -6.324682 -12.568295 7.938647
H -3.981993 -11.567744 9.700208
H -5.242503 -7.660180 11.076621
H -6.531845 -7.992438 9.882792
H -6.382165 -9.387027 12.622665
H -8.003791 -9.648665 10.473793
H -6.739150 -7.211551 13.345761
H -8.418286 -7.796235 13.121025
H -6.100173 -4.659935 10.846130
H -5.685630 -2.491813 11.911957
H -8.499675 -1.371269 15.689042
H -7.924253 0.232214 15.250494
H -8.974083 -0.673465 14.143532
H -5.008630 -2.252926 14.975414
H -5.627698 -0.887315 15.923007
H -6.394585 -2.473398 16.034828
H -8.118111 0.095605 12.181283
H -7.173644 1.795430 10.693152
H -2.990745 3.162890 11.463363
H -3.275835 3.782258 9.860456
H -3.030030 0.790298 10.028102
H -0.705399 1.086008 9.952043
H -3.404973 2.214643 7.873497
H -2.262683 0.884981 7.855085
H 2.652897 3.926115 8.060829
H -3.325411 1.288755 12.548432
H -4.228022 -0.367001 14.025296
H -8.761465 -3.363495 14.819927
H -9.140029 -5.522990 13.761697
