448
Molecule ID: homopoly_62704
C -1.622622 0.954368 -0.219721
C -0.536258 0.162279 -0.151885
C -0.614296 -1.325541 -0.276028
C 0.787601 0.812815 0.067996
O 0.950701 2.011679 0.228292
O 1.770045 -0.125153 0.068819
C 3.076720 0.408633 0.282504
C 0.764796 4.788196 -6.452086
C 1.107524 3.379604 -6.916884
O 0.260800 2.452647 -6.227461
C 0.864232 1.567539 -5.406145
O 2.052652 1.493649 -5.141692
C -0.095361 0.703016 -4.760845
C -0.996548 -0.042369 -4.186005
H -2.613500 0.544794 -0.374531
H -1.547198 2.034868 -0.124744
H -1.645312 -1.670273 -0.416124
H -0.034518 -1.673398 -1.137607
H -0.227198 -1.809301 0.627226
H 3.142052 0.878142 1.269451
H 3.335873 1.123438 -0.504392
H 3.791664 -0.417931 0.245235
H 1.020000 4.912959 -5.399914
H -0.308895 4.975666 -6.551556
H 1.311529 5.537109 -7.037594
H 0.892018 3.288938 -7.989370
H 2.176904 3.181915 -6.774663
H -1.191811 0.138973 -3.135239
C -1.621559 0.952787 -0.210986
C -0.538545 0.163041 -0.146123
C -0.613607 -1.325470 -0.281842
C 0.786818 0.810867 0.074907
O 0.950107 2.011639 0.236675
O 1.769611 -0.125103 0.070003
C 3.077267 0.409087 0.278521
C -5.912277 1.436934 -0.114822
C -5.218341 1.465887 -1.464721
O -4.611998 0.187416 -1.692238
C -4.139890 0.003706 -2.952385
O -4.138969 0.853832 -3.830036
C -3.614066 -1.393104 -3.163166
C -3.942173 -2.459651 -2.398479
H -2.614482 0.544508 -0.369172
H -1.548887 2.033736 -0.108346
H -1.645048 -1.670018 -0.418829
H -0.038406 -1.664769 -1.149427
H -0.221043 -1.815929 0.614976
H 3.146114 0.879059 1.264965
H 3.333094 1.123395 -0.509795
H 3.792321 -0.417412 0.238964
H -6.352596 2.410780 0.124573
H -5.215683 1.161067 0.681843
H -6.711798 0.688033 -0.109290
H -4.448294 2.244853 -1.467872
H -5.960213 1.679498 -2.242458
H -3.561651 -3.440705 -2.684343
C -1.621121 0.953506 -0.219664
C -0.538230 0.162148 -0.145393
C -0.613977 -1.326178 -0.275439
C 0.786301 0.810509 0.080508
O 0.948217 2.010295 0.247990
O 1.769504 -0.124796 0.070189
C 3.077392 0.410169 0.275841
C -0.426764 -4.989744 -2.775366
C -0.476515 -4.007818 -1.620477
O -1.789236 -4.064068 -1.045868
C -1.981784 -3.153291 -0.055858
O -1.173626 -2.331757 0.354948
C -3.308386 -3.369998 0.577455
C -3.301183 -3.925380 1.811192
H -2.612856 0.544881 -0.382313
H -1.547637 2.034073 -0.120834
H -1.645803 -1.671374 -0.409630
H -0.039948 -1.668769 -1.142620
H -0.220317 -1.813734 0.622632
H 3.145912 0.891373 1.256802
H 3.334758 1.114879 -0.520398
H 3.791558 -0.417563 0.246822
H -1.145238 -4.702733 -3.552965
H 0.572606 -5.022388 -3.216794
H -0.700993 -5.998904 -2.444697
H 0.256024 -4.291144 -0.858609
H -0.264702 -2.995200 -1.983447
H -4.244635 -4.034694 2.348111
C -1.621646 0.953708 -0.216736
C -0.537873 0.162523 -0.146001
C -0.613353 -1.325601 -0.282297
C 0.785940 0.809679 0.083718
O 0.946724 2.008504 0.264046
O 1.770221 -0.123738 0.061580
C 3.077496 0.409597 0.276556
C -3.965810 -8.279109 5.021977
C -2.485997 -8.001670 5.223177
O -2.223276 -6.678590 4.749971
C -0.954295 -6.230084 4.972584
O -0.036635 -6.890040 5.437307
C -0.914189 -4.747278 4.698133
C -0.110322 -4.065482 5.539353
H -2.612838 0.545399 -0.381151
H -1.548242 2.033841 -0.113136
H -1.644968 -1.670341 -0.418204
H -0.038902 -1.664504 -1.150477
H -0.219892 -1.816165 0.614060
H 3.142549 0.879827 1.263136
H 3.336510 1.123732 -0.510913
H 3.792028 -0.417043 0.240310
H -4.233736 -8.191331 3.962897
H -4.227955 -9.278924 5.373856
H -4.567762 -7.542907 5.567378
H -1.887057 -8.724261 4.655754
H -2.239036 -8.073340 6.289777
H 0.507441 -4.610802 6.260658
C -1.622517 0.953082 -0.213349
C -0.537603 0.162402 -0.147382
C -0.613261 -1.325652 -0.282327
C 0.786551 0.810775 0.077418
O 0.947895 2.009715 0.252126
O 1.770507 -0.123751 0.061003
C 3.077366 0.409804 0.277366
C 6.095245 -1.389972 4.458829
C 5.350846 -2.636996 4.023965
O 4.007633 -2.309648 3.630706
C 3.075996 -2.259769 4.605732
O 3.300006 -2.385226 5.802059
C 1.689993 -2.004930 4.056170
C 1.369348 -1.835656 2.755070
H -2.613849 0.544320 -0.372844
H -1.548909 2.033428 -0.110552
H -1.644619 -1.670492 -0.418965
H -0.037943 -1.665659 -1.149602
H -0.220540 -1.815249 0.614994
H 3.141072 0.879357 1.264268
H 3.337483 1.124283 -0.509315
H 3.792121 -0.416945 0.241655
H 6.044310 -0.613898 3.690025
H 5.647120 -0.965076 5.365605
H 7.144561 -1.617877 4.660227
H 5.353309 -3.401954 4.809272
H 5.838891 -3.075472 3.146388
H 0.321721 -1.687305 2.483365
C -1.621589 0.953184 -0.209755
C -0.538714 0.163450 -0.146487
C -0.613718 -1.325419 -0.281074
C 0.788065 0.811601 0.070362
O 0.951733 2.012828 0.223053
O 1.768719 -0.125758 0.073914
C 3.077391 0.408482 0.280181
C 7.826513 -0.228432 -0.931372
C 6.612219 -1.061949 -1.307522
O 5.406975 -0.351494 -1.006303
C 4.945541 -0.512751 0.261790
O 5.508579 -1.136918 1.149083
C 3.639873 0.194417 0.458868
C 3.531652 1.429501 -0.085016
H -2.615043 0.544448 -0.364794
H -1.548797 2.033867 -0.108211
H -1.645382 -1.669712 -0.418653
H -0.038119 -1.665431 -1.147947
H -0.222115 -1.815145 0.616424
H 3.146578 0.881105 1.265144
H 3.333056 1.120332 -0.510207
H 3.791689 -0.418413 0.242543
H 7.814418 0.729513 -1.464682
H 7.824403 0.005877 0.139371
H 8.751033 -0.762494 -1.171797
H 6.630116 -2.040596 -0.810650
H 6.614464 -1.259238 -2.386614
H 4.375745 1.826238 -0.651347
C -1.622096 0.953805 -0.214895
C -0.538418 0.162655 -0.145441
C -0.614656 -1.325424 -0.276278
C 0.788297 0.811057 0.074380
O 0.950813 2.012031 0.231279
O 1.768981 -0.125600 0.073378
C 3.077009 0.408875 0.277261
C -2.072925 3.556801 -2.954210
C -0.696288 4.188493 -2.983010
O -0.156311 4.238389 -1.658702
C 1.050410 4.855755 -1.610000
O 1.624560 5.410095 -2.531595
C 1.609515 4.752512 -0.225875
C 1.507799 5.809459 0.611015
H -2.613683 0.545512 -0.372934
H -1.547605 2.034914 -0.116051
H -1.646532 -1.670452 -0.408678
H -0.042132 -1.667612 -1.144900
H -0.219019 -1.813714 0.620783
H 3.143634 0.902069 1.252222
H 3.339263 1.102615 -0.526979
H 3.789899 -0.421311 0.261345
H -2.024743 2.550162 -2.536705
H -2.490973 3.500496 -3.962905
H -2.756695 4.132988 -2.326961
H -0.031464 3.590105 -3.608773
H -0.767892 5.201317 -3.393154
H 1.974468 5.763188 1.594311
C -1.622975 0.953133 -0.207434
C -0.537596 0.162845 -0.146247
C -0.613147 -1.324690 -0.289194
C 0.786375 0.810202 0.078467
O 0.949344 2.010807 0.245368
O 1.769750 -0.125257 0.070394
C 3.076932 0.408574 0.280613
C -0.607073 11.888377 2.946082
C 0.193973 10.874810 3.750373
O 0.341165 9.665289 2.984341
C -0.705508 8.808644 3.067358
O -1.652767 8.928463 3.839445
C -0.610527 7.733097 2.011060
C -1.515037 6.752580 2.191025
H -2.614244 0.545082 -0.368008
H -1.549465 2.033298 -0.099929
H -1.644085 -1.668820 -0.429716
H -0.036062 -1.659926 -1.157280
H -0.221963 -1.819188 0.606159
H 3.149125 0.863087 1.273995
H 3.328067 1.135797 -0.497342
H 3.793698 -0.415525 0.224645
H -1.576792 11.481194 2.648696
H -0.081068 12.154528 2.022845
H -0.776508 12.799026 3.526828
H -0.269410 10.673727 4.724152
H 1.197654 11.260763 3.947653
H -2.084583 6.740270 3.130867
C -1.620271 0.953963 -0.219229
C -0.538545 0.162226 -0.140968
C -0.612059 -1.324729 -0.296708
C 0.781245 0.804527 0.118255
O 0.936853 1.995670 0.350373
O 1.771412 -0.121205 0.050266
C 3.077606 0.411212 0.269903
C 0.713661 -3.607632 -7.480273
C -0.796632 -3.459065 -7.490572
O -1.244717 -2.887329 -6.250241
C -1.318766 -1.527158 -6.230232
O -1.033212 -0.780281 -7.159031
C -1.760828 -1.061293 -4.877735
C -2.870319 -1.667580 -4.392372
H -2.608757 0.549061 -0.406571
H -1.548245 2.033266 -0.101132
H -1.643437 -1.669390 -0.431593
H -0.040873 -1.650509 -1.171973
H -0.213088 -1.826331 0.591104
H 3.149385 0.857036 1.267470
H 3.327415 1.145944 -0.501644
H 3.795112 -0.411322 0.206938
H 1.063732 -4.064286 -8.410038
H 1.028281 -4.235632 -6.638900
H 1.203799 -2.634318 -7.354779
H -1.264524 -4.446240 -7.578558
H -1.132585 -2.865690 -8.350906
H -3.344263 -2.439524 -5.004400
C -1.622493 0.953641 -0.209843
C -0.537797 0.162786 -0.146544
C -0.613608 -1.325188 -0.282916
C 0.787239 0.811234 0.073578
O 0.950695 2.011909 0.232756
O 1.769159 -0.125475 0.071720
C 3.077331 0.408624 0.279677
C -8.065946 -2.136658 -4.704124
C -7.955955 -2.011965 -3.197181
O -6.591071 -2.271847 -2.844893
C -6.329064 -2.234808 -1.511606
O -7.152162 -2.032342 -0.631391
C -4.868058 -2.532324 -1.274205
C -4.568057 -2.934445 -0.021773
H -2.614542 0.544623 -0.367145
H -1.548949 2.033556 -0.106907
H -1.645078 -1.669644 -0.420569
H -0.038008 -1.664223 -1.150368
H -0.221531 -1.816020 0.613948
H 3.146765 0.877432 1.266566
H 3.332380 1.123851 -0.507967
H 3.792191 -0.417686 0.238507
H -7.408485 -1.415677 -5.203039
H -9.092914 -1.972039 -5.039677
H -7.746060 -3.131914 -5.030014
H -8.231505 -1.001140 -2.881058
H -8.611403 -2.745420 -2.715360
H -5.391583 -2.964566 0.687207
C -1.620727 0.954615 -0.223603
C -0.538135 0.162664 -0.145924
C -0.615586 -1.326689 -0.264400
C 0.787814 0.811959 0.071205
O 0.952058 2.013186 0.219448
O 1.768524 -0.126140 0.077486
C 3.077622 0.409024 0.275455
C -1.504441 -8.691850 1.531367
C -1.583266 -7.541875 0.545000
O -2.208290 -6.410014 1.168729
C -1.380660 -5.609512 1.889716
O -0.180205 -5.761797 2.031672
C -2.168913 -4.512097 2.530258
C -1.877879 -4.129812 3.791296
H -2.613107 0.545368 -0.380627
H -1.545920 2.035558 -0.133734
H -1.647918 -1.671730 -0.394816
H -0.042990 -1.676176 -1.129639
H -0.221373 -1.807724 0.636816
H 3.144313 0.915083 1.243947
H 3.340503 1.092132 -0.537710
H 3.788677 -0.421709 0.270588
H -1.096580 -9.591157 1.057869
H -2.496295 -8.924144 1.931433
H -0.870154 -8.433828 2.384246
H -2.209235 -7.826432 -0.305168
H -0.594918 -7.285072 0.149744
H -2.451939 -3.321841 4.236278
C -1.621180 0.953464 -0.216609
C -0.537956 0.160550 -0.141710
C -0.611862 -1.324781 -0.299194
C 0.781398 0.804609 0.118382
O 0.935307 1.993578 0.357065
O 1.772509 -0.120237 0.045725
C 3.077441 0.413058 0.268974
C -0.458336 -0.916397 9.742295
C -1.149424 -0.398031 8.497135
O -0.500556 -0.927613 7.331070
C -0.960383 -2.116249 6.863960
O -1.915244 -2.734228 7.309355
C -0.092970 -2.630217 5.746957
C 0.659751 -1.753198 5.057535
H -2.608949 0.548521 -0.403206
H -1.548426 2.032029 -0.096300
H -1.643128 -1.669741 -0.435568
H -0.039613 -1.650417 -1.174272
H -0.213909 -1.828047 0.588604
H 3.149176 0.850999 1.269968
H 3.326051 1.153953 -0.496838
H 3.796894 -0.408118 0.199472
H -0.591450 -2.000999 9.842611
H -0.851342 -0.433857 10.638822
H 0.622156 -0.738854 9.689342
H -2.221141 -0.622625 8.501911
H -1.048108 0.692422 8.443001
H 0.614991 -0.694465 5.313833
C -1.621369 0.954346 -0.221778
C -0.537962 0.162549 -0.145630
C -0.616242 -1.327058 -0.257610
C 0.787505 0.812995 0.066823
O 0.952753 2.013931 0.212046
O 1.769683 -0.125737 0.073821
C 3.077877 0.409312 0.269990
C 2.604858 -5.843995 0.021633
C 3.435944 -5.032694 0.996324
O 2.705287 -3.922963 1.530726
C 2.729860 -2.783027 0.789863
O 3.110493 -2.693373 -0.367590
C 2.272836 -1.626532 1.629062
C 2.673544 -0.354909 1.402432
H -2.613947 0.544395 -0.374772
H -1.546170 2.035387 -0.136215
H -1.648782 -1.672780 -0.383359
H -0.046074 -1.680390 -1.123184
H -0.219082 -1.804532 0.644528
H 3.141174 0.934531 1.228819
H 3.347601 1.075701 -0.555090
H 3.786788 -0.423231 0.286104
H 2.360880 -5.259547 -0.869221
H 1.663659 -6.146735 0.477310
H 3.146405 -6.740360 -0.291967
H 4.370135 -4.692592 0.530811
H 3.717812 -5.664117 1.848254
H 2.253991 0.413328 2.050225
C -1.623502 0.953326 -0.212025
C -0.536749 0.161892 -0.146912
C -0.614187 -1.326355 -0.274197
C 0.786687 0.812185 0.070756
O 0.950169 2.011734 0.231822
O 1.770670 -0.124484 0.065237
C 3.077465 0.410010 0.273782
C -1.951844 1.361216 0.143966
C -0.786199 1.038723 1.048288
O 0.314450 1.935013 0.867912
C 1.028261 1.746371 -0.272860
O 0.701400 1.080821 -1.244029
C 2.378898 2.334259 -0.072135
C 2.549927 3.668765 0.035642
H -2.614685 0.543367 -0.366447
H -1.548753 2.033328 -0.114727
H -1.645754 -1.671695 -0.406727
H -0.040772 -1.670781 -1.141146
H -0.219388 -1.811803 0.624633
H 3.141296 0.899912 1.251019
H 3.340748 1.107638 -0.527072
H 3.790510 -0.418854 0.256498
H -2.060219 2.436200 0.002287
H -1.811182 0.914906 -0.843777
H -2.874602 0.945680 0.557312
H -1.094786 1.137745 2.091210
H -0.454368 0.005789 0.913341
H 3.556198 4.045231 0.220934
C -1.624510 0.953991 -0.204267
C -0.536443 0.161840 -0.145937
C -0.613560 -1.324955 -0.284227
C 0.787130 0.811448 0.068584
O 0.953027 2.014610 0.212493
O 1.768559 -0.126360 0.080297
C 3.077136 0.408292 0.281547
C 2.904124 10.628284 -1.765178
C 2.216326 9.465520 -2.464294
O 1.376170 8.760757 -1.536657
C 2.023306 7.839351 -0.772724
O 3.223818 7.585892 -0.819501
C 1.111882 7.166351 0.221683
C 0.229607 7.970411 0.846955
H -2.615470 0.543705 -0.358371
H -1.549801 2.032661 -0.100839
H -1.644781 -1.669555 -0.422823
H -0.037483 -1.662859 -1.152028
H -0.221552 -1.817179 0.612100
H 3.151018 0.875810 1.268876
H 3.328118 1.125165 -0.506192
H 3.792365 -0.417194 0.235278
H 2.161545 11.316704 -1.344559
H 3.518402 10.271864 -0.929197
H 3.546965 11.179515 -2.458172
H 1.572629 9.848140 -3.265793
H 2.943980 8.787023 -2.928006
H 0.156033 9.008397 0.511755
C -1.622454 0.953210 -0.208802
C -0.538435 0.161304 -0.140548
C -0.612543 -1.324638 -0.288871
C 0.784501 0.807046 0.096694
O 0.944245 2.006259 0.287378
O 1.769920 -0.123643 0.063430
C 3.077892 0.410714 0.270764
C -1.667803 2.665491 4.883989
C -2.643095 3.113186 3.808023
O -2.024730 4.168547 3.061741
C -2.644092 4.496371 1.895466
O -3.619622 3.933360 1.425238
C -1.964485 5.694787 1.297710
C -2.191430 5.963446 0.044144
H -2.612738 0.545438 -0.380826
H -1.549876 2.032373 -0.097907
H -1.644277 -1.669986 -0.425346
H -0.039744 -1.655945 -1.161544
H -0.216365 -1.823176 0.602250
H 3.150924 0.875050 1.259529
H 3.328839 1.129943 -0.514643
H 3.793866 -0.414530 0.222934
H -0.737427 2.308293 4.432376
H -1.408539 3.502098 5.539701
H -2.099538 1.860371 5.489032
H -3.557522 3.496177 4.271119
H -2.893217 2.264424 3.157132
H -2.408300 6.171418 -0.982498
