368
Molecule ID: homopoly_6537093
C 7.503810 2.237802 -4.896200
C 8.097980 3.450442 -5.595967
C 7.422363 4.751845 -5.180283
O 6.161445 4.865042 -5.861921
C 5.052163 4.988026 -5.103010
O 4.995304 5.045675 -3.885808
C 3.875409 5.103832 -5.922584
C 2.875484 5.234566 -6.745336
C 2.793524 6.468973 -7.487778
C 3.374872 7.704045 -7.216823
C 3.003245 8.601897 -8.247658
C 2.219183 7.873228 -9.108946
O 2.080177 6.603829 -8.660383
H 7.894089 1.321820 -5.347177
H 7.785567 2.225291 -3.841238
H 6.415889 2.220841 -4.956991
H 7.995029 3.317577 -6.679911
H 9.163758 3.504109 -5.361502
H 7.333673 4.832957 -4.089828
H 8.026944 5.597899 -5.526902
H 3.986060 7.947064 -6.354362
H 3.272090 9.647469 -8.338599
H 1.695861 8.108650 -10.026419
C 1.212453 2.753550 -11.203780
C 1.288025 1.254871 -10.940408
C 0.316845 0.767997 -9.864484
O 0.538125 1.521628 -8.665442
C 0.776307 0.822647 -7.533142
O 0.815983 -0.388979 -7.403653
C 0.964877 1.822131 -6.420976
C 0.266531 1.631120 -5.268769
C 0.331153 2.599499 -4.180095
C 1.321828 3.429375 -3.671315
C 0.774715 4.223812 -2.640743
C -0.512414 3.791860 -2.494033
O -0.783760 2.820168 -3.388148
H 1.922445 3.039328 -11.986142
H 0.214333 3.048204 -11.542605
H 1.453483 3.337507 -10.306956
H 2.311056 1.026884 -10.627569
H 1.093087 0.712873 -11.875230
H 0.434699 -0.312198 -9.726671
H -0.714890 0.943674 -10.184334
H 2.345127 3.479371 -4.008227
H 1.265795 4.992862 -2.058475
H -1.315367 4.059081 -1.830280
C 5.178126 1.974516 -1.364223
C 3.699503 1.656612 -1.495927
C 3.395868 0.916891 -2.796763
O 2.033907 0.454076 -2.754871
C 1.746159 -0.411244 -3.758650
O 2.484684 -0.684242 -4.692089
C 0.427565 -1.096569 -3.535561
C 0.597304 -2.284761 -2.832012
C 1.677406 -2.220785 -1.856774
C 1.598822 -1.937870 -0.504188
C 2.924802 -1.842806 0.003286
C 3.743427 -2.113522 -1.060536
O 3.015671 -2.329276 -2.183640
H 5.746229 1.056269 -1.192430
H 5.566418 2.454836 -2.265727
H 5.345019 2.641022 -0.510649
H 3.365371 1.063258 -0.639105
H 3.115001 2.580824 -1.463155
H 4.084980 0.075907 -2.917670
H 3.523142 1.589236 -3.652228
H 0.683822 -1.793338 0.051850
H 3.242754 -1.631851 1.013688
H 4.820400 -2.215341 -1.161263
C 6.025607 -6.958358 -3.907913
C 5.010738 -6.662782 -2.815491
C 4.539344 -5.208347 -2.850098
O 3.462821 -5.001369 -1.920169
C 2.234430 -5.352128 -2.359879
O 2.022604 -5.799704 -3.486909
C 1.081258 -5.096975 -1.390783
C 1.171508 -5.638109 -0.124032
C 2.492045 -5.728556 0.451606
C 3.116833 -4.842936 1.325087
C 4.430240 -5.299367 1.547821
C 4.536960 -6.479937 0.851748
O 3.374155 -6.750855 0.206195
H 6.929683 -6.351515 -3.794454
H 6.315851 -8.014814 -3.870686
H 5.596074 -6.757369 -4.894977
H 4.160414 -7.345605 -2.922682
H 5.448143 -6.882286 -1.835276
H 4.240474 -4.905040 -3.862701
H 5.360659 -4.546532 -2.547431
H 2.650542 -3.967565 1.749123
H 5.202821 -4.842140 2.153356
H 5.323500 -7.206327 0.726852
C -6.084911 -9.254649 4.016580
C -4.894595 -8.306095 4.142872
C -3.645759 -8.887431 3.488260
O -2.537973 -7.974843 3.552867
C -2.524749 -7.034449 2.577030
O -3.364388 -6.914347 1.696527
C -1.357764 -6.097260 2.698816
C -1.637215 -4.970297 3.419715
C -2.576869 -5.092687 4.519835
C -2.477581 -5.866392 5.675847
C -3.626523 -5.611505 6.466358
C -4.358372 -4.684586 5.775958
O -3.733457 -4.356027 4.619835
H -6.972364 -8.816666 4.488591
H -6.326220 -9.439509 2.964050
H -5.879372 -10.213760 4.502475
H -4.702307 -8.098958 5.201255
H -5.155645 -7.340280 3.686007
H -3.856455 -9.164823 2.454464
H -3.340476 -9.801659 4.003998
H -1.671795 -6.546046 5.916662
H -3.878708 -6.054855 7.422538
H -5.297825 -4.180038 5.961107
C 4.112756 -5.654460 6.210950
C 3.170077 -4.500827 5.908791
C 2.131201 -4.900342 4.862558
O 1.299307 -3.796214 4.472387
C 0.276093 -3.544953 5.325423
O 0.067655 -4.148723 6.366951
C -0.470934 -2.338261 4.858797
C -0.161737 -1.203125 5.573200
C 0.944533 -1.269776 6.512923
C 2.269059 -0.881142 6.322751
C 2.938472 -1.002983 7.561347
C 1.994016 -1.450766 8.456523
O 0.808774 -1.623775 7.830570
H 3.582937 -6.470871 6.714561
H 4.922437 -5.318975 6.865266
H 4.559946 -6.056206 5.295594
H 3.740869 -3.645405 5.537909
H 2.682092 -4.171471 6.826584
H 1.516564 -5.740995 5.215355
H 2.658266 -5.229203 3.970649
H 2.695899 -0.533985 5.394393
H 3.971466 -0.769241 7.787567
H 2.005446 -1.677129 9.514250
C -4.968641 3.300137 10.372597
C -3.887307 2.612198 11.184388
C -3.255941 1.441148 10.436775
O -2.802317 1.859758 9.139999
C -1.491577 1.591047 8.865243
O -0.655698 1.151653 9.638937
C -1.212479 1.952131 7.403391
C -0.833969 3.268880 7.318248
C -0.975134 4.128605 8.516083
C -1.701380 5.309047 8.668453
C -1.459083 5.821350 9.967496
C -0.588528 4.943199 10.550750
O -0.277858 3.940631 9.694514
H -5.706746 2.584738 10.000994
H -4.541302 3.828823 9.515869
H -5.493320 4.040088 10.988939
H -3.117378 3.348099 11.432980
H -4.307304 2.252623 12.130999
H -2.466741 0.996497 11.057241
H -4.007136 0.661425 10.271190
H -2.313570 5.780170 7.910005
H -1.867860 6.720255 10.411323
H -0.105286 4.895177 11.514560
C -5.751658 8.722950 4.138472
C -4.797709 7.572901 3.903371
C -3.348947 7.984906 4.127235
O -2.540102 6.819386 3.955962
C -1.248440 6.970354 4.342098
O -0.779555 7.979781 4.858086
C -0.451559 5.685307 4.216343
C 0.672857 5.858716 3.437137
C 1.935391 5.177390 3.671995
C 2.313148 3.858717 3.862785
C 3.721306 3.774214 3.998743
C 4.166825 5.059630 3.915939
O 3.124869 5.903018 3.739299
H -5.595017 9.495426 3.377781
H -5.606126 9.189666 5.125212
H -6.788142 8.378325 4.066931
H -5.043297 6.728421 4.547864
H -4.924043 7.198534 2.877481
H -3.053711 8.744159 3.393587
H -3.225022 8.391824 5.144156
H 1.647581 3.022905 3.911123
H 4.320144 2.884840 4.167313
H 5.140941 5.523907 3.974214
C -2.262446 3.744214 -9.923802
C -2.428652 4.628490 -8.702475
C -1.159493 5.407924 -8.383326
O -0.104056 4.520809 -7.995555
C 0.441260 4.747790 -6.778124
O -0.010057 5.466124 -5.899251
C 1.821549 4.191229 -6.752574
C 2.018211 2.842991 -6.711947
C 3.330995 2.321489 -7.060218
C 4.173568 2.644584 -8.121150
C 5.258603 1.740242 -8.114793
C 5.021229 0.887518 -7.071235
O 3.891481 1.245247 -6.414761
H -1.493465 2.988652 -9.750830
H -3.194654 3.225210 -10.159096
H -1.975918 4.334078 -10.800679
H -3.252299 5.327271 -8.883204
H -2.691439 4.008451 -7.847101
H -1.381726 6.159139 -7.614297
H -0.826942 5.959475 -9.272221
H 4.002060 3.432455 -8.846059
H 6.090959 1.692651 -8.804668
H 5.529954 0.025216 -6.667558
C -5.342703 1.953906 -3.892719
C -5.153051 1.726113 -5.385395
C -3.885717 2.372979 -5.920590
O -2.729222 1.842598 -5.247566
C -2.014810 0.897748 -5.901201
O -2.264717 0.446240 -7.009102
C -0.773742 0.560542 -5.119364
C -0.759120 -0.535299 -4.280545
C -2.092148 -0.984824 -3.918218
C -2.692686 -0.942408 -2.669620
C -4.028885 -1.403069 -2.809404
C -4.160218 -1.729831 -4.135032
O -3.024254 -1.452693 -4.812168
H -5.363935 3.017452 -3.647144
H -6.284719 1.502995 -3.560904
H -4.537287 1.485303 -3.324017
H -5.129706 0.647215 -5.577930
H -6.018848 2.137835 -5.917141
H -3.825085 2.235401 -7.005136
H -3.899656 3.457257 -5.748307
H -2.236704 -0.595790 -1.747646
H -4.788482 -1.512627 -2.051895
H -4.966322 -2.140253 -4.742106
C -1.362135 -2.859413 -7.756385
C -1.282908 -4.295359 -7.282801
C -0.134231 -4.538712 -6.302929
O -0.058936 -3.630734 -5.201817
C -0.980445 -3.795901 -4.214326
O -2.093639 -4.274375 -4.370993
C -0.258292 -3.546327 -2.903972
C -0.154511 -4.718197 -2.156315
C -1.142452 -5.756487 -2.356155
C -1.072709 -6.900535 -3.153741
C -2.306201 -7.579134 -3.034805
C -3.044204 -6.857843 -2.132739
O -2.357499 -5.771012 -1.712420
H -0.400594 -2.514806 -8.144860
H -1.664290 -2.192841 -6.944003
H -2.103348 -2.775099 -8.559064
H -2.239966 -4.571658 -6.824632
H -1.146037 -4.955238 -8.150797
H 0.816717 -4.446538 -6.848100
H -0.174897 -5.569721 -5.926234
H -0.229872 -7.179971 -3.769490
H -2.602540 -8.500249 -3.520815
H -4.029484 -6.979117 -1.709634
C -3.753745 -9.961532 -0.201437
C -2.434366 -10.523872 0.308752
C -1.234905 -9.759646 -0.223182
O -1.196298 -8.429385 0.323416
C -0.086839 -7.745081 -0.070562
O 0.741843 -8.189987 -0.855486
C -0.004268 -6.344688 0.577138
C -0.103337 -6.440130 1.950364
C 0.746576 -7.446563 2.600341
C 0.446575 -8.703695 3.127282
C 1.635353 -9.301173 3.612762
C 2.621635 -8.375754 3.380708
O 2.097444 -7.266559 2.818321
H -3.820451 -10.047453 -1.291655
H -4.596978 -10.511735 0.233969
H -3.873930 -8.906479 0.056067
H -2.365219 -11.573819 0.002455
H -2.424079 -10.504351 1.402576
H -1.277167 -9.722143 -1.317666
H -0.325091 -10.287821 0.082405
H -0.523422 -9.176006 3.120023
H 1.757329 -10.275250 4.057472
H 3.687352 -8.359960 3.555880
C -6.127281 -4.409189 1.441019
C -5.214775 -4.478148 0.222617
C -4.044664 -3.497649 0.281700
O -3.349852 -3.642796 1.522709
C -2.011725 -3.423000 1.496000
O -1.318279 -3.177407 0.522934
C -1.436701 -3.595982 2.871721
C -1.326762 -2.461011 3.636335
C -2.282505 -1.429823 3.286026
C -3.505427 -1.185050 3.902635
C -4.178355 -0.182401 3.175290
C -3.356953 0.114942 2.122327
O -2.217331 -0.617357 2.187546
H -5.592967 -4.693393 2.354261
H -6.528710 -3.401785 1.577433
H -6.968581 -5.101706 1.320630
H -4.826640 -5.499565 0.156048
H -5.794660 -4.288873 -0.687414
H -4.440987 -2.474688 0.253333
H -3.394203 -3.644679 -0.581875
H -3.878625 -1.719753 4.763219
H -5.160483 0.238790 3.376519
H -3.434826 0.803940 1.288891
C -0.467036 1.456275 0.811995
C 0.862271 1.770836 1.448553
C 1.396578 0.712126 2.414847
O 0.571162 0.190755 3.472039
C -0.140886 0.988223 4.306752
O -0.329153 2.177055 4.133742
C -0.725153 0.202952 5.437779
C -1.355236 0.696921 6.538230
C -2.366177 -0.247599 7.048931
C -3.754511 -0.097404 7.066797
C -4.315137 -1.235740 7.694521
C -3.245247 -2.009535 8.072627
O -2.087070 -1.428852 7.690932
H -0.635641 2.100107 -0.055713
H -0.522427 0.418067 0.473304
H -1.268988 1.669663 1.519652
H 0.773308 2.741782 1.938809
H 1.603659 1.910839 0.652720
H 1.674890 -0.162011 1.831634
H 2.329508 1.060618 2.870486
H -4.302817 0.750186 6.668372
H -5.359594 -1.450694 7.878985
H -3.144886 -2.957042 8.589594
C 1.361443 8.659138 7.747070
C 2.423911 7.917716 6.949611
C 2.378928 6.412041 7.168168
O 1.151360 5.901231 6.656717
C 1.108821 4.545311 6.584680
O 2.009887 3.781371 6.917581
C -0.263157 4.073703 6.204548
C -0.941538 4.608818 5.149410
C -2.312485 4.150145 4.896502
C -3.409940 3.919072 5.732329
C -4.521525 3.557910 4.930979
C -4.073956 3.588447 3.635554
O -2.766538 3.930344 3.603661
H 0.347383 8.372715 7.451646
H 1.472580 8.455140 8.815705
H 1.464642 9.737127 7.587788
H 2.281234 8.135532 5.885061
H 3.410785 8.297752 7.235082
H 2.449508 6.179931 8.237037
H 3.229413 5.959982 6.650885
H -3.447615 4.024287 6.802977
H -5.530020 3.334371 5.250287
H -4.538762 3.425223 2.675163
C -3.959071 7.017712 -1.279294
C -2.956076 7.311569 -0.181450
C -2.505274 6.031195 0.507671
O -1.534382 6.331741 1.525128
C -0.248341 6.465598 1.123147
O 0.121496 6.369730 -0.038657
C 0.625566 6.819088 2.286316
C 1.677914 7.520704 1.944891
C 2.820006 8.154779 1.402296
C 3.551205 7.856318 0.279411
C 4.586535 8.823990 0.210872
C 4.413040 9.639110 1.311941
O 3.345226 9.230293 2.051470
H -4.276466 7.948523 -1.761358
H -4.842690 6.511632 -0.879646
H -3.514804 6.374189 -2.048112
H -3.377242 8.004648 0.556895
H -2.090465 7.823426 -0.618906
H -2.101456 5.309523 -0.207622
H -3.352561 5.546021 1.007434
H 3.352907 7.048419 -0.411640
H 5.348134 8.920107 -0.547475
H 4.941193 10.508860 1.686159
