336
Molecule ID: homopoly_94232
O 0.919723 -5.695577 -8.223113
C 1.348630 -4.786920 -7.530486
O 0.684171 -3.672491 -7.135832
C -0.658790 -3.538460 -7.648374
C -0.836114 -2.160241 -8.297666
C -0.565224 -0.989416 -7.358737
C 0.816801 -0.530700 -7.751277
C 0.839799 -0.835551 -9.233803
O 0.073326 -2.027005 -9.404930
C 2.639575 -4.901081 -6.908702
C 3.710220 -5.245460 -6.231716
H -0.898621 -4.305738 -8.394007
H -1.346502 -3.647763 -6.802746
H -1.857293 -2.084331 -8.698029
H -0.657435 -1.240768 -6.297826
H -1.283545 -0.185423 -7.570849
H 1.571627 -1.129299 -7.231686
H 1.007379 0.522496 -7.532970
H 1.857728 -0.992303 -9.611322
H 0.363785 -0.038645 -9.816343
H 4.643357 -5.420080 -6.756254
O 4.433099 -5.657551 -1.493179
C 3.264098 -6.024086 -1.540804
O 2.641132 -6.809566 -0.638397
C 3.502485 -7.378208 0.365327
C 3.948515 -8.787874 -0.063975
C 5.073549 -9.344172 0.799777
C 4.323691 -10.009758 1.925228
C 3.129403 -10.584404 1.202525
O 2.841725 -9.703086 0.108413
C 2.385929 -5.703144 -2.700798
C 1.040919 -5.633900 -2.792815
H 4.368505 -6.734340 0.571965
H 2.922550 -7.430402 1.289290
H 4.223042 -8.786717 -1.125776
H 5.792883 -8.590497 1.133957
H 5.622006 -10.106906 0.231246
H 3.998396 -9.257157 2.653604
H 4.909429 -10.769723 2.449163
H 2.249256 -10.664920 1.844407
H 3.354040 -11.573262 0.787404
H 0.673871 -5.356756 -3.786344
O -4.460261 -5.399372 -2.639390
C -3.557780 -5.748549 -1.891874
O -3.435524 -6.945809 -1.281316
C -4.488407 -7.869617 -1.623338
C -4.255371 -9.232225 -0.979535
C -4.081241 -9.199032 0.528250
C -3.193493 -10.386077 0.816550
C -2.507178 -10.687789 -0.501263
O -3.058302 -9.826156 -1.498590
C -2.439008 -4.843931 -1.523446
C -2.806579 -3.805541 -0.749912
H -5.444371 -7.460967 -1.275883
H -4.508663 -7.986539 -2.713170
H -5.077675 -9.903494 -1.246113
H -3.589757 -8.281410 0.860422
H -5.039111 -9.253804 1.052801
H -2.471938 -10.177966 1.612534
H -3.784984 -11.248189 1.143757
H -1.418920 -10.541676 -0.458377
H -2.696721 -11.727687 -0.801234
H -3.800801 -3.800811 -0.292551
O -1.856501 0.330811 0.768650
C -1.726339 0.641607 -0.406424
O -2.132050 1.820210 -0.941244
C -2.883237 2.675329 -0.059726
C -2.174033 4.002881 0.207663
C -2.130121 4.918498 -1.002354
C -3.418618 5.693332 -0.871909
C -3.513434 5.873003 0.625316
O -2.934968 4.701907 1.214654
C -1.301590 -0.321276 -1.480758
C -0.680121 0.080869 -2.617652
H -3.857522 2.850559 -0.529387
H -3.097446 2.203420 0.902120
H -1.162932 3.814476 0.583020
H -1.281875 5.609186 -0.913795
H -2.028377 4.383995 -1.946788
H -3.428406 6.644212 -1.414560
H -4.258375 5.085181 -1.231939
H -4.543295 5.981646 0.977786
H -2.933551 6.738993 0.960490
H -0.531412 -0.652733 -3.417524
O 1.396704 5.336798 -3.259966
C 1.602165 4.148922 -3.452206
O 1.946153 3.540986 -4.615700
C 2.267216 4.386388 -5.729056
C 3.680381 4.076509 -6.210579
C 3.885878 2.630750 -6.638447
C 5.078438 2.762304 -7.553818
C 4.801724 4.075111 -8.254136
O 4.013053 4.873729 -7.362817
C 1.681436 3.115238 -2.396609
C 2.776202 3.222388 -1.602358
H 2.188933 5.454577 -5.504797
H 1.544327 4.184576 -6.533303
H 4.393457 4.322954 -5.416659
H 4.062750 1.953266 -5.797325
H 3.025689 2.261418 -7.204830
H 5.996468 2.845498 -6.963723
H 5.193597 1.923486 -8.246845
H 4.214008 3.925673 -9.163986
H 5.720491 4.608968 -8.514514
H 3.132830 2.280216 -1.157555
O 4.813730 4.741804 1.998114
C 3.724748 4.941856 2.507480
O 3.480675 5.660887 3.633727
C 4.631584 6.280474 4.227620
C 5.479832 5.344875 5.108932
C 4.892088 3.993539 5.488730
C 6.130325 3.192006 5.801433
C 7.100433 3.698244 4.754656
O 6.753791 5.063777 4.490333
C 2.498009 4.228755 2.030401
C 1.811311 3.571568 3.004816
H 5.235488 6.779066 3.458713
H 4.223797 7.081602 4.856232
H 5.734558 5.893918 6.023465
H 4.192839 4.057720 6.326630
H 4.381346 3.510081 4.650842
H 6.491151 3.443865 6.804649
H 5.983976 2.108692 5.750004
H 7.006116 3.141419 3.816538
H 8.142380 3.637405 5.086410
H 1.988052 3.784409 4.060660
O -0.898472 5.162660 3.585154
C -1.006232 4.191217 4.308016
O -0.857891 4.174395 5.659164
C -0.429184 5.390939 6.282296
C -1.394169 5.767804 7.401579
C -2.724530 6.319819 6.916703
C -3.197547 7.057448 8.145866
C -1.908238 7.641411 8.686435
O -0.835843 6.800584 8.232082
C -1.282097 2.820475 3.807561
C -2.483061 2.221400 3.981500
H 0.566048 5.204552 6.714996
H -0.300664 6.227551 5.582839
H -1.574219 4.889244 8.041617
H -2.582552 7.031059 6.092822
H -3.422470 5.552251 6.585604
H -3.953820 7.818287 7.937318
H -3.619276 6.352574 8.868605
H -1.896523 7.691065 9.777118
H -1.731507 8.652308 8.298489
H -2.659518 1.264177 3.478000
O -5.452982 0.047025 3.416856
C -5.392350 1.019184 2.681337
O -5.216621 0.997705 1.335817
C -5.407505 -0.293082 0.731754
C -5.540202 -0.109722 -0.780184
C -5.758443 -1.409958 -1.537299
C -6.521441 -0.946463 -2.754948
C -7.400490 0.143362 -2.181506
O -6.684848 0.714532 -1.080550
C -5.514654 2.429258 3.169367
C -6.438092 3.258904 2.631781
H -6.327833 -0.737328 1.129357
H -4.552707 -0.937331 0.967225
H -4.669696 0.421202 -1.178637
H -4.832265 -1.919872 -1.791857
H -6.380535 -2.101008 -0.957009
H -7.100309 -1.739495 -3.235129
H -5.830219 -0.526739 -3.493871
H -7.637681 0.921757 -2.914993
H -8.337269 -0.268407 -1.791593
H -6.530603 4.269761 3.041140
O 3.953268 -8.032981 -3.853998
C 3.737344 -7.410546 -4.886267
O 3.774272 -7.926303 -6.138551
C 4.320889 -9.249717 -6.267392
C 5.842155 -9.230822 -6.052132
C 6.499563 -10.582275 -6.264646
C 7.921566 -10.177229 -6.560505
C 7.745477 -8.903288 -7.366053
O 6.477838 -8.339084 -6.996251
C 3.500830 -5.935620 -4.964910
C 3.046916 -5.218690 -3.916651
H 4.094715 -9.580337 -7.282770
H 3.826969 -9.935228 -5.572909
H 6.090098 -8.836061 -5.062014
H 6.078216 -11.092575 -7.137403
H 6.405871 -11.240528 -5.395844
H 8.449536 -9.958880 -5.622269
H 8.494266 -10.937616 -7.101583
H 7.711570 -9.116665 -8.438281
H 8.538555 -8.173957 -7.164899
H 2.996338 -4.132041 -4.006162
O -0.223465 -7.862085 -0.855141
C -0.177614 -6.648378 -0.724017
O -0.339049 -5.955405 0.431734
C -0.869363 -6.724688 1.532377
C 0.186554 -7.527529 2.294680
C -0.417509 -8.429344 3.361584
C 0.737415 -8.609846 4.310083
C 1.398955 -7.250996 4.273575
O 1.084724 -6.656038 3.010084
C -0.078681 -5.701292 -1.866324
C -1.163641 -4.953648 -2.189455
H -1.657608 -7.389606 1.166647
H -1.342063 -6.002715 2.208365
H 0.795247 -8.122972 1.602087
H -0.789078 -9.374859 2.960007
H -1.245843 -7.923967 3.875860
H 0.434777 -8.909914 5.317478
H 1.420828 -9.372634 3.922281
H 1.001829 -6.599838 5.056874
H 2.484254 -7.313833 4.393623
H -1.127960 -4.326501 -3.083485
O -2.505411 -2.765889 1.875610
C -1.712009 -2.438342 1.000383
O -0.438740 -2.012856 1.205634
C -0.100193 -1.909796 2.600806
C 0.448644 -3.233775 3.138186
C 0.217461 -3.405764 4.635487
C 1.530246 -2.984710 5.240383
C 2.512786 -3.470352 4.200167
O 1.881207 -3.251858 2.934544
C -2.033376 -2.595256 -0.443356
C -1.806410 -1.709642 -1.437177
H -0.970645 -1.561073 3.169299
H 0.659568 -1.132200 2.692963
H 0.022747 -4.074865 2.584136
H -0.637039 -2.840993 5.022434
H 0.024403 -4.457740 4.853570
H 1.711450 -3.404823 6.231404
H 1.569926 -1.892365 5.314107
H 3.463596 -2.928364 4.236721
H 2.712822 -4.540151 4.305032
H -2.134891 -2.022276 -2.437788
O -1.098257 1.238159 -5.192224
C -0.793914 1.970466 -4.255484
O -1.109557 3.287149 -4.172703
C -2.079542 3.686863 -5.163398
C -2.251952 5.202407 -5.309593
C -1.049538 5.938056 -5.864826
C -1.284576 7.335173 -5.351140
C -1.826255 7.052996 -3.967034
O -2.576701 5.829824 -4.061415
C -0.169266 1.408528 -3.017521
C 0.882858 1.898465 -2.333769
H -1.808935 3.278232 -6.146409
H -3.042492 3.264282 -4.846522
H -3.106906 5.382052 -5.973458
H -0.127375 5.545540 -5.438386
H -0.976729 5.884822 -6.956057
H -2.051348 7.828131 -5.961740
H -0.390468 7.964137 -5.342219
H -1.017110 6.895457 -3.245258
H -2.475197 7.851121 -3.595815
H 1.198580 1.265800 -1.499793
O 3.584589 6.482437 -0.026107
C 3.746661 5.466887 -0.697336
O 4.661079 5.276669 -1.684169
C 5.495133 6.411352 -1.990161
C 6.901183 6.291749 -1.395860
C 7.608215 4.969941 -1.661198
C 8.599260 4.923337 -0.530060
C 7.801206 5.517851 0.614638
O 6.893970 6.462088 0.031446
C 2.908139 4.247750 -0.541755
C 2.339376 3.866125 0.622179
H 5.573893 6.449983 -3.082194
H 5.026985 7.350895 -1.667778
H 7.513281 7.115566 -1.784934
H 6.921756 4.117538 -1.574047
H 8.072819 4.935402 -2.650111
H 9.457198 5.569323 -0.760366
H 8.977100 3.922033 -0.307853
H 7.221438 4.742512 1.125189
H 8.436951 6.020420 1.352175
H 1.631975 3.051273 0.497860
O 1.405308 0.709963 1.073493
C 1.736422 1.204425 2.148248
O 2.753560 0.796146 2.944743
C 3.604993 -0.222366 2.372395
C 4.669792 0.439918 1.505554
C 5.305592 -0.485193 0.483884
C 6.604708 0.239347 0.224993
C 6.985950 0.678419 1.628086
O 5.755527 0.908249 2.335120
C 1.026752 2.359018 2.792792
C -0.247189 2.066794 3.105823
H 4.067884 -0.745743 3.216146
H 3.001663 -0.943521 1.811830
H 4.263778 1.326928 1.004147
H 5.508203 -1.469973 0.918015
H 4.690207 -0.610641 -0.409472
H 7.368002 -0.368481 -0.261202
H 6.413515 1.120046 -0.396110
H 7.523049 -0.120693 2.150922
H 7.598705 1.581472 1.642691
H -0.591310 1.070409 2.806912
O -4.237621 3.107738 7.110622
C -3.409122 2.676590 6.318180
O -2.269067 2.006398 6.654419
C -2.155689 1.558552 8.013587
C -2.421017 0.055364 8.066519
C -3.773920 -0.357047 7.509296
C -3.981754 -1.685252 8.187836
C -3.422280 -1.410296 9.568765
O -2.370160 -0.440198 9.412828
C -3.586793 2.650191 4.828122
C -4.873898 2.773999 4.433822
H -1.127488 1.759374 8.348069
H -2.789105 2.111239 8.712265
H -1.636319 -0.462052 7.500482
H -4.560205 0.341283 7.820726
H -3.785280 -0.425845 6.415934
H -3.390936 -2.459302 7.684661
H -5.026715 -2.005774 8.204848
H -3.028304 -2.313039 10.045091
H -4.179987 -0.970643 10.224836
H -5.622437 3.045283 5.186156
O -9.005832 3.725212 -0.025194
C -8.027916 3.940554 0.684102
O -7.342367 5.110550 0.722354
C -7.934507 6.131891 -0.105350
C -7.420715 7.510616 0.305374
C -7.849586 8.610887 -0.655948
C -7.835984 9.825825 0.235508
C -8.327289 9.266611 1.553972
O -7.958355 7.882307 1.592189
C -7.469655 2.936925 1.648515
C -8.166720 1.836969 1.798518
H -7.673916 5.923040 -1.148958
H -9.026425 6.120618 0.018718
H -6.330265 7.500389 0.412018
H -8.866527 8.436989 -1.027087
H -7.181364 8.696274 -1.517452
H -8.455114 10.645231 -0.138334
H -6.811546 10.194932 0.349020
H -9.419967 9.325642 1.632704
H -7.886570 9.785084 2.412283
H -8.761369 0.956209 1.870179
