352
Molecule ID: homopoly_67829
O -5.409469 -4.033818 -0.568099
C -6.124368 -3.046468 -0.456884
O -7.391944 -3.015663 0.035174
C -7.918034 -4.282177 0.443949
C -8.543900 -5.108459 -0.681606
F -9.168367 -6.170538 -0.099099
F -7.559576 -5.630497 -1.457947
C -9.526812 -4.317525 -1.532222
F -10.460371 -3.731268 -0.724250
F -8.894264 -3.281677 -2.164216
C -10.197260 -5.202628 -2.565040
F -10.884704 -6.208668 -1.959220
F -9.274024 -5.799662 -3.366524
C -11.137582 -4.374501 -3.420246
F -11.799091 -5.163845 -4.309284
F -12.097662 -3.784428 -2.661414
C -5.664774 -1.733123 -0.802372
C -5.236148 -0.527424 -1.053870
H -7.152660 -4.869807 0.969271
H -8.683552 -4.063319 1.199296
H -10.610111 -3.597792 -3.984882
H -5.785470 0.292670 -0.606032
O -2.679403 3.761541 0.336249
C -3.121472 2.619558 0.295718
O -3.031590 1.732332 1.315574
C -2.454004 2.347654 2.493870
C -0.924289 2.343339 2.439940
F -0.512611 1.044772 2.272475
F -0.458680 2.969854 1.328718
C -0.255415 2.906448 3.693184
F 1.100845 2.722604 3.593193
F -0.644825 2.145402 4.761336
C -0.499129 4.370415 4.022789
F -1.825695 4.639736 4.129297
F 0.031992 4.631330 5.263338
C 0.164132 5.330484 3.049846
F -0.339393 5.222172 1.799568
F -0.079347 6.618113 3.431397
C -3.810846 2.087169 -0.900802
C -4.618201 3.029613 -1.449939
H -2.865704 3.358743 2.622689
H -2.788283 1.772783 3.352883
H 1.250733 5.202695 3.024764
H -4.969394 3.867536 -0.841814
O -4.753005 6.471775 -1.956723
C -3.589723 6.120270 -1.807776
O -2.757685 6.588255 -0.837587
C -3.379169 7.432131 0.161414
C -3.935861 6.613817 1.336688
F -2.899834 6.083537 2.045359
F -4.641672 5.551741 0.850700
C -4.842914 7.402391 2.278260
F -5.879036 7.913990 1.543280
F -5.420378 6.549461 3.177070
C -4.148594 8.532056 3.024499
F -5.093313 9.276297 3.674335
F -3.552243 9.379969 2.133702
C -3.126421 8.047674 4.038844
F -2.634536 9.108172 4.736462
F -3.685776 7.213556 4.949172
C -2.947627 5.025257 -2.642675
C -1.625127 4.793955 -2.507915
H -4.160105 8.054225 -0.291485
H -2.589296 8.105079 0.513208
H -2.267716 7.554581 3.581120
H -1.067533 5.425927 -1.814614
O 3.761972 3.159891 -3.119515
C 2.582508 3.475331 -3.170683
O 2.125276 4.668941 -3.625070
C 3.132170 5.557511 -4.192628
C 2.508603 6.292788 -5.375737
F 1.939332 5.337839 -6.183226
F 1.480633 7.060003 -4.918761
C 3.485697 7.126319 -6.196910
F 2.893032 7.507986 -7.364278
F 4.523693 6.314179 -6.566784
C 4.025440 8.346457 -5.471892
F 5.038543 8.883061 -6.214533
F 4.601343 7.968915 -4.295120
C 2.982049 9.419869 -5.215343
F 2.395485 9.834906 -6.361880
F 3.572686 10.517088 -4.669557
C 1.438932 2.590311 -2.729360
C 1.808218 1.293991 -2.641920
H 4.000879 4.987338 -4.536315
H 3.425454 6.247332 -3.395200
H 2.208739 9.107002 -4.514448
H 2.814230 1.040463 -2.987338
O 2.785902 -1.764507 0.341343
C 1.646921 -2.208102 0.245269
O 1.283973 -3.464659 0.599240
C 2.267219 -4.284383 1.261163
C 3.106816 -5.095142 0.282436
F 3.731659 -4.235493 -0.579891
F 2.290811 -5.855746 -0.502907
C 4.170856 -5.959955 0.954816
F 4.962489 -6.517467 -0.005278
F 4.998751 -5.156784 1.692291
C 3.590829 -7.058298 1.813574
F 2.677311 -7.781836 1.110895
F 2.927762 -6.521674 2.872571
C 4.698412 -7.983765 2.297800
F 5.619385 -7.305636 3.035932
F 4.185865 -8.941463 3.120287
C 0.475745 -1.390570 -0.232186
C -0.818650 -1.727039 -0.029932
H 1.683644 -4.942232 1.908986
H 2.900683 -3.655852 1.898157
H 5.203919 -8.491523 1.468837
H -1.590448 -1.053848 -0.396908
O -2.443615 -0.295001 4.417711
C -2.610426 -1.246048 3.672267
O -3.803045 -1.810531 3.352693
C -4.970195 -1.345806 4.067941
C -5.611031 -0.105180 3.433619
F -5.524791 -0.184964 2.077388
F -4.851416 0.976920 3.778811
C -7.043832 0.178031 3.865437
F -7.397981 1.413337 3.406477
F -7.116195 0.253620 5.226159
C -8.036948 -0.850985 3.362556
F -7.939387 -0.992338 2.012063
F -7.756786 -2.076706 3.888018
C -9.451811 -0.459010 3.747374
F -9.815134 0.712083 3.165841
F -10.331714 -1.397236 3.293804
C -1.515293 -1.981740 2.971863
C -0.224868 -1.896593 3.348737
H -5.643087 -2.204387 4.045265
H -4.726306 -1.155855 5.123620
H -9.584176 -0.378750 4.832913
H 0.467076 -2.547674 2.817624
O 4.068839 1.746600 3.941972
C 3.293937 1.178710 4.687520
O 2.662650 1.700063 5.765592
C 3.032458 3.035644 6.146014
C 3.181598 3.143925 7.661034
F 3.463339 4.441144 7.959236
F 1.970271 2.881997 8.222335
C 4.252579 2.218903 8.202157
F 5.395941 2.415085 7.467495
F 3.889631 0.925333 7.991411
C 4.576774 2.429227 9.663993
F 5.068097 3.686869 9.877930
F 5.611982 1.593871 10.015571
C 3.418075 2.183328 10.612294
F 2.794469 1.013631 10.322411
F 2.482626 3.160579 10.510207
C 2.880497 -0.241645 4.574998
C 3.795183 -1.235927 4.578220
H 3.948947 3.378443 5.650512
H 2.214972 3.693493 5.820724
H 3.755218 2.143780 11.651860
H 3.467787 -2.268964 4.456316
O 8.778634 0.390708 2.219524
C 7.574268 0.247386 2.324191
O 6.668496 1.254033 2.472108
C 7.203923 2.582270 2.581298
C 7.064608 3.377056 1.287950
F 7.747577 2.729924 0.304949
F 7.678784 4.578719 1.466592
C 5.622209 3.585156 0.856095
F 4.880554 4.026125 1.920466
F 5.059955 2.394420 0.495127
C 5.442125 4.580546 -0.278612
F 5.780254 5.836231 0.138100
F 4.096502 4.658157 -0.567900
C 6.199688 4.236826 -1.549744
F 5.865587 5.123984 -2.533543
F 7.536639 4.382528 -1.370338
C 6.834946 -1.055581 2.318634
C 7.191283 -2.153317 1.619089
H 8.253532 2.565205 2.893728
H 6.660687 3.081722 3.391861
H 5.996745 3.224276 -1.904847
H 6.533688 -3.023164 1.732126
O -3.377585 -2.482484 -2.322753
C -3.366071 -1.301318 -2.611481
O -2.813148 -0.789103 -3.737044
C -2.181793 -1.774413 -4.577801
C -3.144949 -2.466781 -5.541934
F -4.214906 -2.956672 -4.871995
F -3.623388 -1.537265 -6.413983
C -2.429305 -3.577647 -6.296447
F -1.358303 -3.051672 -6.968877
F -1.885665 -4.465105 -5.415611
C -3.344579 -4.281076 -7.274757
F -4.419242 -4.828552 -6.649778
F -3.843435 -3.396674 -8.187035
C -2.567186 -5.351962 -8.014859
F -3.376290 -6.013365 -8.888147
F -2.081494 -6.297845 -7.170026
C -3.981290 -0.241541 -1.758969
C -3.314271 0.930440 -1.622214
H -1.661101 -2.510506 -3.960649
H -1.417861 -1.238364 -5.142797
H -1.734205 -4.936823 -8.590453
H -2.350843 1.079182 -2.101975
O -6.055623 3.143624 -4.849445
C -5.755309 2.699016 -3.753288
O -6.304185 1.597922 -3.183968
C -7.242344 0.891310 -4.025561
C -6.526570 -0.023934 -5.030821
F -5.498774 0.641586 -5.616271
F -5.948372 -1.043665 -4.336911
C -7.490983 -0.561966 -6.073339
F -8.447045 -1.311129 -5.453130
F -8.158675 0.481255 -6.647476
C -6.765127 -1.367278 -7.134775
F -5.817693 -0.609069 -7.761439
F -6.091863 -2.416986 -6.582771
C -7.720043 -1.901956 -8.184391
F -8.403938 -0.902664 -8.800739
F -8.655225 -2.721155 -7.637979
C -4.709134 3.284277 -2.873807
C -3.870563 4.195292 -3.423487
H -7.903561 1.614090 -4.520829
H -7.870315 0.281129 -3.366065
H -7.182827 -2.462164 -8.960632
H -3.989806 4.466173 -4.469385
O -0.194005 2.705365 -5.204541
C -0.691627 3.662280 -4.633377
O -1.225788 4.757518 -5.236769
C -1.209771 4.772411 -6.677582
C -1.195340 6.197278 -7.239489
F 0.032756 6.736053 -6.967380
F -1.241516 6.135727 -8.599386
C -2.250257 7.157180 -6.716340
F -2.047085 8.381870 -7.288796
F -2.060758 7.352754 -5.373989
C -3.688473 6.753614 -6.954209
F -4.504557 7.673665 -6.349890
F -3.946870 5.568683 -6.338639
C -4.064608 6.661484 -8.422293
F -5.395927 6.402741 -8.550322
F -3.433898 5.615553 -9.014057
C -0.749077 3.806307 -3.136273
C 0.172038 3.202704 -2.340941
H -0.311773 4.273902 -7.049001
H -2.079628 4.218030 -7.045200
H -3.848950 7.579633 -8.975145
H 0.126176 3.388557 -1.260649
O 0.695715 -2.212823 -2.959235
C 1.133538 -1.098601 -3.176047
O 1.704206 -0.714539 -4.352942
C 1.799285 -1.737634 -5.364214
C 2.608067 -1.267074 -6.570936
F 3.930118 -1.394846 -6.244900
F 2.398127 -2.152791 -7.583834
C 2.359088 0.154781 -7.052241
F 3.188130 0.421104 -8.102319
F 2.704596 1.057092 -6.087854
C 0.920006 0.382761 -7.462044
F 0.090347 0.179676 -6.399174
F 0.529664 -0.526720 -8.398024
C 0.766382 1.795262 -7.991918
F -0.535102 2.072085 -8.264836
F 1.432045 1.957627 -9.163468
C 1.139578 0.065038 -2.205142
C 0.813417 -0.123661 -0.906973
H 0.790007 -2.032598 -5.679705
H 2.287001 -2.623987 -4.936921
H 1.134768 2.545983 -7.289951
H 0.960839 0.691669 -0.202719
O -1.517497 -5.293003 0.517760
C -1.453270 -4.228921 -0.085372
O -1.283507 -4.101082 -1.419572
C -1.140072 -5.345679 -2.137933
C -2.480288 -6.033670 -2.433577
F -3.188357 -5.268435 -3.308766
F -3.224409 -6.135617 -1.303131
C -2.240674 -7.412040 -3.028513
F -1.536968 -7.294251 -4.196267
F -1.433068 -8.139319 -2.205040
C -3.533654 -8.152342 -3.292273
F -4.344712 -7.429460 -4.118978
F -4.234875 -8.341433 -2.137487
C -3.238279 -9.496195 -3.940588
F -4.389140 -10.199293 -4.132714
F -2.442795 -10.271960 -3.156597
C -1.408915 -2.900234 0.618844
C -1.795069 -2.953572 1.915159
H -0.464401 -6.002400 -1.583943
H -0.637837 -5.099275 -3.076746
H -2.757232 -9.377899 -4.921487
H -2.263055 -3.868320 2.296258
O -0.799497 -2.151034 6.175283
C 0.129288 -1.434558 5.830862
O 0.917472 -0.737150 6.676989
C 0.523043 -0.716404 8.063430
C 1.123115 -1.840604 8.914006
F 1.206234 -1.390532 10.198372
F 2.428997 -2.006964 8.526470
C 0.441527 -3.203475 8.903540
F 0.552258 -3.758553 7.658995
F 1.163916 -4.051352 9.707836
C -1.009710 -3.238236 9.358885
F -1.468105 -4.528798 9.296217
F -1.825243 -2.540656 8.519029
C -1.246353 -2.724819 10.764620
F -1.063449 -1.380472 10.820100
F -0.398939 -3.280037 11.661494
C 0.497752 -1.189149 4.404208
C 1.607417 -0.569460 3.954523
H -0.563470 -0.641178 8.171094
H 0.909312 0.230140 8.451312
H -2.268937 -2.934401 11.091158
H 1.701903 -0.438171 2.865106
O 5.746867 -0.580392 6.583831
C 6.152383 -0.883333 5.477971
O 7.453775 -1.129077 5.164698
C 8.375237 -0.783295 6.215824
C 9.767097 -1.390367 6.027632
F 10.632575 -0.588163 6.732156
F 10.162110 -1.270351 4.736582
C 9.918806 -2.815952 6.544035
F 9.607401 -2.810390 7.881385
F 11.237176 -3.174003 6.495117
C 9.081116 -3.885607 5.871503
F 9.256462 -5.069474 6.540057
F 7.749289 -3.614314 5.999940
C 9.416758 -4.125188 4.414190
F 9.084887 -3.051535 3.663507
F 10.743944 -4.336294 4.230505
C 5.229596 -1.081801 4.319216
C 5.555453 -1.142671 3.010307
H 8.469685 0.312881 6.201448
H 7.988286 -1.064635 7.203720
H 8.874846 -4.989879 4.023409
H 4.743297 -1.273575 2.288754
O 8.167934 -4.820244 1.057698
C 8.472328 -3.885994 0.328312
O 8.962505 -4.013693 -0.932729
C 8.963694 -5.356845 -1.471813
C 7.660020 -5.631798 -2.217643
F 6.601570 -5.395588 -1.401934
F 7.541566 -4.740547 -3.237131
C 7.614021 -7.056196 -2.747893
F 7.701187 -7.938461 -1.711613
F 8.741425 -7.271195 -3.495102
C 6.392014 -7.348788 -3.602971
F 6.525925 -8.595311 -4.152922
F 6.334990 -6.488035 -4.659290
C 5.085752 -7.291521 -2.833151
F 4.046213 -7.667619 -3.633149
F 5.086661 -8.168343 -1.796670
C 8.282773 -2.446475 0.705195
C 8.898156 -1.506593 0.039302
H 9.143737 -6.087791 -0.675712
H 9.812887 -5.408194 -2.161079
H 4.845164 -6.294792 -2.459522
H 9.402634 -0.721336 -0.471059
