752
Molecule ID: homopoly_174625
C 4.680177 10.516146 5.175867
C 4.005367 10.564306 6.329887
C 2.562228 10.873367 6.340266
O 1.903099 11.225067 5.376609
O 2.109213 10.675338 7.601828
C 0.681786 10.717470 7.724720
C 0.256983 10.100077 9.084302
C 0.879761 10.872722 10.278804
C 0.580344 12.367589 10.324793
C -1.287514 10.080421 9.157671
O -1.777130 8.742624 9.298623
C -1.323172 7.913957 8.228233
C -1.893521 6.473402 8.345693
C -1.313193 5.749356 9.575977
C -3.423783 6.519430 8.493808
C -1.515060 5.708580 7.062820
O -2.027120 4.369144 7.086780
C -1.916287 3.731878 5.884585
O -1.446877 4.196383 4.860116
C -2.309266 2.350367 5.967783
C -2.606074 1.097451 6.165004
O 0.101869 7.855099 8.144016
C 0.745599 8.637989 9.145873
H 4.190331 10.702408 4.224096
H 5.735685 10.268630 5.165314
H 4.482826 10.354682 7.276863
H 0.224859 10.157526 6.898593
H 0.353554 11.759022 7.645982
H 1.969812 10.745407 10.278702
H 0.525304 10.426635 11.218880
H -0.495898 12.573915 10.299780
H 0.978259 12.804299 11.249068
H 1.050621 12.897405 9.491076
H -1.660825 10.635101 10.020503
H -1.750196 10.532235 8.274740
H -1.681445 8.351928 7.285219
H -1.754293 4.755022 9.704000
H -1.509680 6.314564 10.494724
H -0.226640 5.619790 9.489859
H -3.877699 7.030829 7.634865
H -3.854370 5.512851 8.553329
H -3.728698 7.056990 9.402862
H -0.426619 5.649903 6.951257
H -1.913904 6.243603 6.189204
H -2.962023 0.819905 7.150883
H 0.554514 8.188772 10.129036
H 1.825422 8.566422 8.980924
C -15.884351 -1.383074 2.591976
C -14.899842 -0.598510 3.047023
C -14.226635 -0.883624 4.330839
O -14.552427 -1.751010 5.123402
O -13.176803 -0.032549 4.433188
C -12.305026 -0.185928 5.572686
C -10.921391 -0.701524 5.119111
C -11.007218 -2.156149 4.569019
C -11.392887 -3.225307 5.587804
C -10.403027 0.221411 3.997379
O -8.982954 0.292224 4.077005
C -8.596562 1.035385 5.235152
C -7.051211 0.966682 5.425618
C -6.627449 1.876579 6.596357
C -6.583986 -0.467991 5.745151
C -6.383100 1.464183 4.118785
O -4.958770 1.278425 4.152842
C -4.345459 1.558936 2.965464
O -4.925750 2.031443 1.996723
C -2.918783 1.066242 2.959420
C -2.041489 1.344192 1.960423
O -9.318707 0.640168 6.408621
C -9.916969 -0.650713 6.286314
H -16.366249 -1.173200 1.643552
H -16.229610 -2.248273 3.153303
H -14.548856 0.252916 2.474890
H -12.207855 0.810909 6.019605
H -12.745523 -0.824152 6.348313
H -11.719295 -2.198440 3.735041
H -10.032618 -2.436042 4.144357
H -12.371124 -3.032094 6.033182
H -10.656721 -3.301370 6.392953
H -11.443702 -4.202615 5.095605
H -10.810913 1.238629 4.061896
H -10.669618 -0.160082 3.005373
H -8.862562 2.085078 5.057185
H -7.132576 1.592006 7.524935
H -5.549767 1.817618 6.776097
H -6.873123 2.923845 6.389974
H -6.891282 -1.172118 4.967578
H -5.495103 -0.525146 5.832923
H -6.996985 -0.811884 6.697335
H -6.601333 2.529743 3.970400
H -6.776033 0.908801 3.261158
H -1.071899 0.843860 1.976875
H -9.122899 -1.395545 6.163026
H -10.410315 -0.877412 7.238890
C 8.622942 -4.967392 -5.741756
C 7.641247 -4.080835 -5.532445
C 7.707427 -2.716104 -6.098369
O 8.587761 -2.291957 -6.829365
O 6.617660 -2.049101 -5.655495
C 6.424512 -0.717856 -6.162629
C 4.904314 -0.426896 -6.181268
C 4.165599 -1.450811 -7.089110
C 4.643972 -1.487815 -8.538402
C 4.626764 0.997601 -6.659116
O 4.603090 1.878206 -5.535859
C 3.433125 1.644164 -4.726537
C 3.528154 2.479197 -3.414475
C 3.942117 3.926382 -3.804330
C 4.654724 1.935794 -2.527034
C 2.225699 2.649015 -2.552427
O 1.338987 1.544353 -2.248803
C 0.727029 1.718966 -1.020652
O 1.168294 2.435647 -0.128431
C -0.652703 1.099523 -0.860736
C -0.752457 -0.237788 -1.038576
O 3.219084 0.251096 -4.505270
C 4.392201 -0.539801 -4.735529
H 8.565731 -5.965621 -5.322810
H 9.497095 -4.715273 -6.336040
H 6.767303 -4.334104 -4.944554
H 6.943949 -0.022031 -5.492859
H 6.857123 -0.602427 -7.163127
H 4.259447 -2.462427 -6.675877
H 3.093667 -1.226184 -7.082230
H 5.643876 -1.927254 -8.615441
H 3.970356 -2.106568 -9.141760
H 4.672850 -0.489179 -8.985527
H 5.408940 1.337307 -7.344121
H 3.672791 1.086837 -7.191412
H 2.579559 2.004423 -5.302951
H 3.971351 4.579755 -2.923625
H 4.931969 3.963276 -4.267628
H 3.220136 4.346118 -4.513715
H 4.751170 2.503806 -1.594193
H 4.467726 0.896693 -2.272079
H 5.626158 1.980587 -3.033394
H 2.545400 3.159334 -1.634154
H 1.588079 3.378037 -3.054699
H 0.181169 -0.694479 -1.357306
H 5.160862 -0.240718 -4.016173
H 4.156631 -1.580655 -4.501259
C -8.850620 1.390153 -9.120631
C -7.717465 1.243103 -8.427177
C -7.738383 0.667291 -7.064767
O -8.738169 0.338641 -6.452946
O -6.453772 0.547547 -6.639497
C -6.312163 -0.015729 -5.321631
C -4.857172 -0.500250 -5.109917
C -3.850160 0.649360 -5.362563
C -3.969893 1.869637 -4.457403
C -4.701623 -1.046825 -3.682796
O -5.454038 -2.235760 -3.460992
C -5.353651 -3.177465 -4.517741
C -5.261539 -4.628554 -3.988243
C -6.403118 -4.925587 -3.003715
C -5.442484 -5.574422 -5.198700
C -3.912813 -4.973871 -3.314140
O -3.481082 -4.111621 -2.236165
C -2.763773 -4.753451 -1.267076
O -2.725878 -5.973637 -1.117784
C -1.913492 -3.826399 -0.427603
C -1.373784 -4.396677 0.687609
O -4.284473 -2.879583 -5.415968
C -4.549741 -1.650877 -6.103030
H -9.813499 1.100516 -8.708031
H -8.837838 1.805871 -10.124473
H -6.755842 1.528798 -8.837038
H -6.575065 0.758047 -4.591534
H -7.010681 -0.851907 -5.194427
H -3.920467 0.982329 -6.404993
H -2.840477 0.243768 -5.239388
H -3.182932 2.591490 -4.699103
H -4.928123 2.376800 -4.587233
H -3.849864 1.605841 -3.403444
H -5.048062 -0.314260 -2.948979
H -3.650026 -1.260547 -3.457796
H -6.293041 -3.104200 -5.080311
H -6.194104 -4.511945 -2.020418
H -6.537219 -6.005032 -2.868485
H -7.357317 -4.517558 -3.355613
H -5.368671 -6.625137 -4.898165
H -4.689419 -5.389563 -5.969794
H -6.427174 -5.435568 -5.664176
H -3.128542 -4.930811 -4.065001
H -3.965324 -6.021130 -2.987163
H -1.735118 -5.389919 0.964611
H -3.663416 -1.435454 -6.708389
H -5.368348 -1.824148 -6.812837
C 6.950364 7.320314 5.074511
C 5.974690 7.051879 4.193086
C 4.637160 6.637817 4.659797
O 4.277884 6.599792 5.828059
O 3.902792 6.297366 3.569963
C 2.639691 5.674183 3.862624
C 2.198956 4.710326 2.722076
C 1.644487 5.502813 1.508585
C 2.643552 6.363072 0.747360
C 1.080486 3.800503 3.302881
O 1.313149 2.398002 3.147542
C 2.621579 1.950515 3.507384
C 2.657500 1.239114 4.891445
C 2.118274 2.143291 6.015535
C 4.096426 0.840320 5.269159
C 1.781906 -0.030467 4.825893
O 2.249391 -0.947079 3.812159
C 1.266722 -1.614445 3.163272
O 0.068545 -1.464819 3.376559
C 1.758047 -2.539478 2.087643
C 3.073947 -2.821299 1.954194
O 3.620363 2.963989 3.435312
C 3.363069 3.811330 2.319859
H 6.782742 7.236446 6.144972
H 7.937351 7.615503 4.739466
H 6.135398 7.116126 3.125077
H 1.893731 6.463918 4.009220
H 2.724576 5.113562 4.800345
H 0.823910 6.149244 1.846166
H 1.197566 4.803396 0.793489
H 3.476145 5.772428 0.355934
H 2.144141 6.832353 -0.107930
H 3.040539 7.168758 1.370487
H 0.924120 3.995857 4.365748
H 0.124089 4.007480 2.811702
H 2.876852 1.211378 2.742862
H 2.662894 3.089607 6.058573
H 2.221062 1.661427 6.994186
H 1.054053 2.361221 5.881523
H 4.123024 0.332867 6.241233
H 4.754894 1.712258 5.337250
H 4.512490 0.150823 4.533858
H 0.738138 0.264809 4.669727
H 1.836518 -0.568845 5.775808
H 3.786861 -2.419786 2.673822
H 4.277008 4.373826 2.108607
H 3.150762 3.215168 1.423655
C 8.769166 0.935558 9.791908
C 8.335178 0.642934 8.558715
C 9.220721 0.006902 7.558602
O 10.368133 -0.357498 7.755684
O 8.517013 -0.088795 6.409547
C 9.191226 -0.581149 5.231803
C 8.534303 -1.890636 4.725451
C 8.801734 -3.077661 5.686475
C 10.253714 -3.522945 5.806470
C 9.030065 -2.180853 3.300070
O 8.583614 -1.212441 2.340962
C 7.168118 -0.996763 2.365961
C 6.781449 0.189275 1.415326
C 7.915782 1.233912 1.334543
C 5.547478 0.923373 1.950436
C 6.478277 -0.283452 -0.030380
O 5.488210 -1.327927 -0.154011
C 4.188021 -0.975984 -0.363170
O 3.685896 0.121806 -0.207879
C 3.446249 -2.156214 -0.957450
C 2.718528 -1.832664 -2.048827
O 6.745922 -0.664154 3.685361
C 7.017530 -1.697391 4.613840
H 8.108900 1.412588 10.509395
H 9.784324 0.714664 10.106809
H 7.320815 0.871206 8.251717
H 9.098656 0.214491 4.484815
H 10.265986 -0.711256 5.402015
H 8.214474 -3.947774 5.359719
H 8.431249 -2.829292 6.690616
H 10.646244 -3.876157 4.849072
H 10.897949 -2.722585 6.175088
H 10.325804 -4.354346 6.514708
H 8.699576 -3.172238 2.977610
H 10.125726 -2.179919 3.259886
H 6.651159 -1.913896 2.053045
H 7.604038 2.107069 0.752270
H 8.198161 1.589599 2.330688
H 8.810730 0.826913 0.852736
H 5.776840 1.459120 2.877276
H 4.735920 0.220245 2.156307
H 5.187427 1.672643 1.238781
H 6.190546 0.563959 -0.657863
H 7.396501 -0.682472 -0.482818
H 2.668417 -0.760273 -2.252991
H 6.573630 -1.415350 5.574339
H 6.506694 -2.614919 4.292840
C -3.771059 -13.833828 -3.611879
C -4.688988 -13.035383 -3.045951
C -5.099700 -11.714496 -3.566146
O -6.001719 -11.061169 -3.062721
O -4.353579 -11.358382 -4.636145
C -4.675076 -10.085769 -5.214239
C -3.787232 -9.865777 -6.460959
C -3.972182 -11.010826 -7.499067
C -5.406726 -11.245071 -7.955085
C -4.111865 -8.507952 -7.108446
O -3.235758 -7.510183 -6.585719
C -1.897206 -7.738664 -7.036911
C -0.890240 -6.799054 -6.301388
C 0.522028 -7.002820 -6.884149
C -0.870994 -7.136256 -4.803444
C -1.327198 -5.324800 -6.488940
O -0.290176 -4.356848 -6.188009
C -0.333260 -3.692448 -5.004303
O -0.922278 -4.045164 -3.986986
C 0.369177 -2.369807 -5.076643
C -0.030404 -1.639613 -6.147257
O -1.511728 -9.114982 -6.934110
C -2.312924 -9.842479 -6.005218
H -3.244721 -13.561886 -4.522283
H -3.528753 -14.793620 -3.167599
H -5.203281 -13.343367 -2.140794
H -4.497026 -9.297976 -4.471243
H -5.738739 -10.063077 -5.481289
H -3.587403 -11.953289 -7.087195
H -3.354697 -10.796839 -8.382008
H -6.014585 -11.659758 -7.145904
H -5.875710 -10.323667 -8.308464
H -5.421431 -11.968630 -8.774889
H -5.141956 -8.199859 -6.899768
H -4.007469 -8.526799 -8.200058
H -1.870242 -7.493879 -8.108394
H 1.261096 -6.366247 -6.387308
H 0.539778 -6.756067 -7.951086
H 0.859225 -8.039973 -6.772482
H -0.357299 -8.085302 -4.610576
H -0.352002 -6.369315 -4.239388
H -1.880593 -7.199569 -4.385772
H -2.239697 -5.092564 -5.935953
H -1.568993 -5.153651 -7.544730
H -0.675998 -2.147877 -6.875056
H -1.902081 -10.855637 -5.930234
H -2.210534 -9.400892 -5.009191
C -8.620680 10.531054 -2.968651
C -7.536308 9.792087 -3.224821
C -6.630707 10.146423 -4.339162
O -6.787085 11.100267 -5.085942
O -5.654351 9.211998 -4.398130
C -4.660229 9.364530 -5.425078
C -4.803927 8.271902 -6.503063
C -6.171780 8.356848 -7.248317
C -6.376354 9.597481 -8.110941
C -3.625245 8.368061 -7.480499
O -3.654800 7.288468 -8.405959
C -3.567389 6.027604 -7.735740
C -3.596424 4.888944 -8.788156
C -2.446417 5.072819 -9.796379
C -4.927602 4.904029 -9.571439
C -3.468238 3.518859 -8.089362
O -2.262089 3.430187 -7.306501
C -1.467614 2.352611 -7.535524
O -1.634323 1.531195 -8.427290
C -0.477227 2.165793 -6.412503
C 0.036900 3.180626 -5.692617
O -4.656679 5.849802 -6.830887
C -4.703648 6.881005 -5.845885
H -9.289260 10.273003 -2.152948
H -8.868521 11.407225 -3.564594
H -7.286440 8.916620 -2.638392
H -4.672998 10.369531 -5.863954
H -3.691116 9.266659 -4.922772
H -6.988424 8.302962 -6.518711
H -6.305619 7.482722 -7.898937
H -5.716070 9.588271 -8.982379
H -7.406367 9.624947 -8.482703
H -6.201785 10.522367 -7.556002
H -2.662097 8.353129 -6.951973
H -3.647148 9.304169 -8.047798
H -2.624106 5.988437 -7.176637
H -2.566865 5.989960 -10.381037
H -1.479271 5.129916 -9.291137
H -2.407002 4.237390 -10.503480
H -5.785041 4.763384 -8.905593
H -5.067203 5.851634 -10.103370
H -4.954411 4.102505 -10.317350
H -4.302758 3.363249 -7.395501
H -3.537711 2.717226 -8.834718
H 0.574465 2.899904 -4.793632
H -3.811518 6.799566 -5.211100
H -5.571729 6.682766 -5.207400
C 3.928549 -9.744315 6.826455
C 3.849815 -10.062517 8.124570
C 3.614793 -9.099805 9.224636
O 3.572223 -9.438805 10.396341
O 3.464361 -7.839510 8.749995
C 3.198838 -6.851169 9.755258
C 3.072741 -5.446411 9.123910
C 4.456688 -4.908847 8.637967
C 5.215597 -5.772595 7.637120
C 2.531886 -4.491319 10.209234
O 2.226231 -3.196921 9.697189
C 1.495272 -3.247127 8.469810
C 0.336658 -2.216152 8.468636
C 0.898708 -0.801416 8.711080
C -0.676116 -2.512780 9.595109
C -0.385023 -2.336159 7.105138
O -1.157553 -1.166420 6.810844
C -2.003593 -1.328879 5.756023
O -2.339901 -2.397844 5.266315
C -2.396835 0.017080 5.227191
C -2.530716 0.012126 3.886226
O 0.988456 -4.550360 8.196989
C 2.058806 -5.466503 7.958298
H 4.108824 -10.514486 6.081577
H 3.815050 -8.726151 6.465235
H 3.961927 -11.090590 8.450683
H 2.259116 -7.118764 10.254882
H 4.005288 -6.858093 10.500040
H 5.108690 -4.755670 9.508388
H 4.326352 -3.918748 8.185597
H 6.076523 -5.219922 7.247423
H 5.605604 -6.680364 8.107554
H 4.594045 -6.059100 6.786123
H 3.261571 -4.363987 11.016866
H 1.620493 -4.892031 10.670790
H 2.196663 -2.967115 7.670762
H 1.654883 -0.544076 7.966663
H 1.374964 -0.721690 9.695863
H 0.112863 -0.037101 8.675416
H -0.210734 -2.445666 10.586000
H -1.506443 -1.798392 9.571318
H -1.100423 -3.515732 9.494344
H -1.028245 -3.224523 7.097663
H 0.354837 -2.443712 6.299445
H -2.327298 -0.922617 3.346816
H 1.589989 -6.448605 7.837756
H 2.513710 -5.216047 6.992416
C -1.462188 13.326459 4.575367
C -2.458596 12.854450 3.818638
C -2.256470 12.573329 2.384479
O -1.248123 12.835722 1.739999
O -3.372741 11.959605 1.915278
C -3.255491 11.477471 0.567535
C -4.446315 10.564536 0.186473
C -5.755341 11.380566 -0.011176
C -6.278092 12.142882 1.201261
C -4.082148 9.870306 -1.148726
O -4.890526 8.715444 -1.369338
C -4.740731 7.741184 -0.331013
C -4.038839 6.447429 -0.833616
C -2.622139 6.739358 -1.366959
C -4.864160 5.812937 -1.967652
C -3.941628 5.481551 0.365825
O -3.297039 4.244399 0.024011
C -2.836754 3.592242 1.128440
O -2.918315 4.034023 2.272268
C -2.198828 2.258978 0.833801
C -1.635600 2.085593 -0.388258
O -4.056859 8.262771 0.812934
C -4.670256 9.472030 1.248512
H -1.607801 13.528376 5.631225
H -0.474687 13.520429 4.159710
H -3.437379 12.648567 4.235021
H -2.319040 10.910292 0.486373
H -3.202235 12.335114 -0.114684
H -5.616675 12.100116 -0.829086
H -6.549612 10.698653 -0.343086
H -5.624838 12.979591 1.461844
H -6.390106 11.496551 2.074902
H -7.263664 12.564470 0.974538
H -3.028505 9.568663 -1.178376
H -4.229434 10.548288 -1.996140
H -5.759103 7.471653 -0.015910
H -2.124234 5.821033 -1.695508
H -2.646949 7.416143 -2.226974
H -1.991416 7.195898 -0.595511
H -4.405674 4.887860 -2.334100
H -4.958603 6.495124 -2.819095
H -5.877821 5.568935 -1.627169
H -3.384738 5.974234 1.171954
H -4.944067 5.239202 0.737430
H -1.763856 2.881163 -1.126485
H -4.227687 9.727574 2.215734
H -5.733706 9.276985 1.437731
C -9.261298 -11.104517 3.514867
C -8.932003 -9.990598 2.843033
C -7.758635 -9.187752 3.242404
O -7.027660 -9.439851 4.188402
O -7.641438 -8.151471 2.372622
C -6.516027 -7.292923 2.620374
C -6.173846 -6.461550 1.364210
C -6.013126 -7.359309 0.104900
C -5.074368 -8.553621 0.244322
C -4.888011 -5.669426 1.658715
O -4.952669 -4.382741 1.051461
C -5.929515 -3.594256 1.727890
C -6.115223 -2.211308 1.048756
C -7.349525 -1.509270 1.654616
C -6.343907 -2.326955 -0.457647
C -4.874178 -1.321172 1.305934
O -3.644807 -1.736625 0.670522
C -3.167166 -0.913255 -0.304913
O -3.756774 0.051947 -0.771200
C -1.789332 -1.273366 -0.769233
C -1.417239 -2.562208 -0.959075
O -7.175364 -4.289981 1.898541
C -7.290723 -5.439435 1.063180
H -10.119904 -11.696562 3.221699
H -8.681617 -11.441767 4.368885
H -9.507193 -9.652098 1.990795
H -5.642671 -7.890008 2.912547
H -6.771532 -6.634288 3.460406
H -6.996568 -7.737821 -0.204687
H -5.647369 -6.743395 -0.726142
H -5.448266 -9.279980 0.972430
H -4.065503 -8.253552 0.539470
H -4.995637 -9.071543 -0.719265
H -4.003433 -6.175394 1.270279
H -4.728457 -5.530145 2.735319
H -5.562794 -3.414075 2.748317
H -7.463904 -0.493813 1.257755
H -7.261112 -1.442275 2.742077
H -8.277040 -2.048085 1.427676
H -7.246439 -2.902402 -0.683473
H -5.489302 -2.804024 -0.940588
H -6.469112 -1.337201 -0.910377
H -5.118088 -0.291256 1.030406
H -4.670517 -1.308631 2.381328
H -0.486256 -2.758017 -1.488654
H -8.281761 -5.874730 1.231934
H -7.274028 -5.114384 0.017078
C -4.888953 0.030476 9.644734
C -4.780403 -1.112685 8.951532
C -5.569432 -2.300419 9.323509
O -6.368870 -2.356407 10.242537
O -5.224768 -3.316387 8.491949
C -5.801074 -4.578480 8.854605
C -5.190479 -5.735946 8.035719
C -5.769278 -7.092700 8.552978
C -5.482276 -7.435089 10.012487
C -3.649545 -5.747763 8.133584
O -3.017453 -5.131112 7.008784
C -3.371399 -5.716867 5.744259
C -2.261321 -6.670839 5.198501
C -1.754962 -7.635756 6.292922
C -2.772451 -7.544678 4.040110
C -1.056648 -5.824691 4.720362
O -1.293728 -5.141550 3.467088
C -0.145220 -4.598978 2.969084
O 0.945640 -4.700988 3.535379
C -0.300915 -3.947408 1.608194
C 0.710580 -3.125809 1.237781
O -4.646045 -6.367814 5.786141
C -5.559149 -5.579371 6.551340
H -4.306183 0.906351 9.378398
H -5.565396 0.116777 10.493656
H -4.107704 -1.209972 8.109910
H -5.615154 -4.741340 9.922624
H -6.885868 -4.533332 8.691400
H -5.381677 -7.911538 7.931270
H -6.859337 -7.096490 8.414374
H -4.412905 -7.405866 10.235101
H -5.840292 -8.446684 10.229386
H -6.000463 -6.758517 10.696977
H -3.308219 -5.217167 9.030355
H -3.268368 -6.766800 8.233854
H -3.475988 -4.884778 5.036083
H -1.006327 -8.329071 5.892505
H -2.572027 -8.243751 6.693345
H -1.274300 -7.097136 7.116693
H -3.588824 -8.202306 4.357799
H -3.126707 -6.936469 3.212040
H -1.973482 -8.184476 3.647162
H -0.201514 -6.501692 4.585012
H -0.786228 -5.080563 5.481534
H 0.771643 -2.745907 0.227572
H -5.522436 -4.538399 6.208391
H -6.571209 -5.944993 6.350689
C 12.240106 -2.084255 -5.888529
C 11.802876 -2.855145 -4.885736
C 10.757074 -2.369114 -3.960341
O 10.252432 -1.258857 -3.983416
O 10.471290 -3.369178 -3.082353
C 9.438202 -3.038302 -2.150950
C 9.468572 -3.938652 -0.893915
C 10.702128 -3.600019 0.004564
C 12.077960 -3.757843 -0.634104
C 9.434617 -5.443128 -1.241617
O 8.357654 -6.125696 -0.580797
C 8.308817 -5.805826 0.808593
C 7.272290 -6.686500 1.555106
C 7.770249 -8.147515 1.558600
C 7.136911 -6.222402 3.015286
C 5.895515 -6.677488 0.856612
O 5.319919 -5.381368 0.614389
C 4.373683 -4.946803 1.487200
O 4.139943 -5.435993 2.581931
C 3.683183 -3.712007 0.959051
C 3.724253 -3.446947 -0.363002
O 8.022324 -4.430156 1.038936
C 8.182620 -3.624376 -0.114355
H 12.999609 -2.439309 -6.574248
H 11.839394 -1.087491 -6.051175
H 12.188261 -3.855060 -4.726393
H 8.482707 -3.162914 -2.672045
H 9.517548 -1.990503 -1.833392
H 10.617277 -2.562917 0.353322
H 10.684168 -4.219767 0.908308
H 12.206096 -4.733001 -1.113712
H 12.855361 -3.661309 0.132663
H 12.267790 -2.976626 -1.374377
H 9.281382 -5.599018 -2.314117
H 10.362907 -5.957768 -0.978774
H 9.295551 -6.005505 1.246898
H 8.738920 -8.232173 2.063916
H 7.889445 -8.535695 0.540696
H 7.065378 -8.805078 2.082084
H 6.410100 -6.839172 3.558363
H 8.092547 -6.302598 3.543972
H 6.806844 -5.181866 3.093321
H 5.181351 -7.310670 1.404170
H 5.995709 -7.139986 -0.130409
H 4.178219 -4.157328 -1.050322
H 7.291715 -3.746821 -0.743021
H 8.193820 -2.587626 0.216538
C 5.294835 -15.846537 0.201407
C 5.382811 -14.764309 -0.586903
C 4.280104 -14.403358 -1.502179
O 3.304522 -15.094044 -1.739861
O 4.546565 -13.168965 -1.994271
C 3.550071 -12.576774 -2.850859
C 3.124389 -11.195871 -2.295778
C 2.623186 -11.308397 -0.823864
C 1.380310 -12.157870 -0.601696
C 2.052715 -10.602147 -3.220802
O 1.919452 -9.216888 -2.920378
C 3.070482 -8.497177 -3.363726
C 3.187768 -7.121873 -2.634278
C 3.079499 -7.276097 -1.106678
C 4.532873 -6.475053 -3.007152
C 1.992266 -6.242978 -3.076876
O 2.004795 -4.885959 -2.581628
C 2.392144 -3.955052 -3.491905
O 2.980765 -4.179387 -4.539323
C 1.988704 -2.578079 -3.085766
C 1.156421 -1.905988 -3.928913
O 4.276425 -9.268912 -3.329033
C 4.339234 -10.234078 -2.282887
H 4.422552 -16.493561 0.183839
H 6.097554 -16.102566 0.882871
H 6.245382 -14.112364 -0.554346
H 2.678593 -13.227264 -2.989694
H 4.016669 -12.457893 -3.836235
H 3.428178 -11.702868 -0.192072
H 2.408098 -10.304037 -0.436287
H 1.490679 -13.167737 -1.001105
H 1.182860 -12.246604 0.472914
H 0.495301 -11.699823 -1.052915
H 1.079206 -11.078364 -3.079648
H 2.302716 -10.723971 -4.283834
H 2.912508 -8.292601 -4.430929
H 3.920864 -7.829768 -0.697720
H 3.053205 -6.304062 -0.615604
H 2.162979 -7.800724 -0.815871
H 4.648411 -5.478016 -2.583256
H 4.632608 -6.382007 -4.094136
H 5.377088 -7.072870 -2.643969
H 1.068404 -6.683523 -2.683866
H 1.898365 -6.251517 -4.166187
H 1.021657 -0.840524 -3.754911
H 4.452520 -9.718035 -1.327263
H 5.280035 -10.778289 -2.422016
C 8.553061 8.051467 -5.833771
C 7.681127 7.141135 -6.287607
C 6.643913 7.512596 -7.273168
O 6.450314 8.632745 -7.706763
O 5.958222 6.386394 -7.592904
C 4.939526 6.545443 -8.592868
C 4.701202 5.190629 -9.290358
C 6.044080 4.640420 -9.878380
C 6.752674 5.548908 -10.879666
C 4.151651 4.155189 -8.278090
O 2.965431 3.498576 -8.746385
C 3.104788 3.038483 -10.087455
C 1.847443 2.264556 -10.575044
C 0.585847 3.119491 -10.401451
C 2.008057 1.951267 -12.087379
C 1.678732 0.904326 -9.855187
O 1.230341 0.961237 -8.484630
C 0.707230 -0.238472 -8.080286
O 0.694651 -1.249688 -8.776465
C 0.212462 -0.278075 -6.651587
C -0.237306 0.787116 -5.954869
O 3.357587 4.112810 -11.004457
C 3.636366 5.356897 -10.373819
H 8.526780 9.082638 -6.175225
H 9.320586 7.778646 -5.117805
H 7.714794 6.109598 -5.955437
H 4.023351 6.886603 -8.097298
H 5.221685 7.308164 -9.328286
H 6.745577 4.432791 -9.057797
H 5.873519 3.675427 -10.368750
H 6.122240 5.770774 -11.743904
H 7.656680 5.053634 -11.247728
H 7.064669 6.491368 -10.420336
H 4.900150 3.395958 -8.038766
H 3.877799 4.630321 -7.329601
H 3.965961 2.358420 -10.133136
H 0.427782 3.381446 -9.354128
H 0.653862 4.054311 -10.968642
H -0.304465 2.585548 -10.751124
H 1.161877 1.363194 -12.461622
H 2.052718 2.862790 -12.692565
H 2.923368 1.375155 -12.273048
H 2.630369 0.363535 -9.874333
H 0.954689 0.320151 -10.438456
H -0.603116 0.621817 -4.941479
H 3.952915 6.059206 -11.151770
H 2.701532 5.755946 -9.960007
C 6.443319 11.908211 2.376276
C 7.592447 11.748384 1.707061
C 7.700620 11.284979 0.309563
O 8.747340 11.384895 -0.311501
O 6.526968 10.779205 -0.152000
C 6.478572 10.547271 -1.565011
C 5.791199 9.217676 -1.948299
C 6.681271 7.986379 -1.599294
C 6.912008 7.665010 -0.127248
C 4.390305 9.113741 -1.325941
O 3.561505 8.330717 -2.197391
C 3.236966 9.100701 -3.358908
C 2.581604 8.235888 -4.477954
C 2.099267 9.165863 -5.615018
C 3.596687 7.252523 -5.087592
C 1.383246 7.426474 -3.920895
O 0.814539 6.659660 -5.009508
C 0.181718 5.503422 -4.687406
O -0.173376 5.169180 -3.570772
C 0.041210 4.623215 -5.901914
C 0.343013 5.095734 -7.077279
O 4.372305 9.829806 -3.856910
C 5.616877 9.231993 -3.485852
H 6.450761 12.302148 3.386701
H 5.476336 11.682985 1.935406
H 8.537917 12.018528 2.164489
H 5.912638 11.386626 -1.988598
H 7.475513 10.579368 -2.024007
H 7.664347 8.109914 -2.076304
H 6.240468 7.088659 -2.052583
H 7.397806 8.481074 0.409702
H 7.568323 6.790107 -0.042432
H 5.983436 7.405334 0.384916
H 4.399501 8.634466 -0.345155
H 3.928979 10.100712 -1.179730
H 2.501163 9.855234 -3.049143
H 1.675596 8.598772 -6.452122
H 2.922879 9.766421 -6.018823
H 1.327412 9.855696 -5.254531
H 3.133546 6.564232 -5.802438
H 4.377188 7.786570 -5.635034
H 4.072000 6.648282 -4.310354
H 0.603407 8.091012 -3.533109
H 1.711036 6.755562 -3.115213
H 0.630330 5.491350 -8.022661
H 5.679540 8.225334 -3.906117
H 6.412098 9.806053 -3.974560
