336
Molecule ID: homopoly_61642
O 6.515644 -6.385079 0.048338
C 5.460617 -6.236415 -0.549579
O 4.978964 -7.018555 -1.543584
C 5.806493 -8.143511 -1.892309
C 7.039079 -7.727218 -2.696699
O 6.616688 -7.126176 -3.924800
C 7.725899 -6.660199 -4.689493
C 7.215869 -6.023037 -5.977591
O 8.275018 -5.404568 -6.695851
C 4.564337 -5.158210 -0.227727
C 3.761603 -4.203585 0.153502
H 6.091359 -8.693068 -0.986495
H 5.179139 -8.806187 -2.497581
H 7.648462 -7.009079 -2.139483
H 7.644838 -8.612515 -2.921703
H 8.399941 -7.491713 -4.925233
H 8.294845 -5.920599 -4.114148
H 6.756121 -6.782206 -6.617715
H 6.445634 -5.273081 -5.767470
H 8.573727 -4.637598 -6.173860
H 2.870734 -4.000263 -0.432957
O 4.289485 -0.986982 4.799515
C 3.936636 -1.243974 3.659004
O 4.439563 -0.697784 2.528578
C 5.449875 0.306287 2.719250
C 6.143586 0.544692 1.378551
O 5.185762 1.043105 0.434477
C 5.752286 1.382550 -0.834032
C 6.229120 0.160032 -1.617138
O 7.571356 -0.162319 -1.254258
C 2.858737 -2.221102 3.300025
C 1.897310 -2.342935 4.233647
H 4.959648 1.222954 3.059351
H 6.188044 -0.024710 3.459755
H 6.544983 -0.408165 1.020454
H 6.953469 1.270518 1.500504
H 4.947305 1.869670 -1.392077
H 6.553111 2.117219 -0.692740
H 6.231057 0.372753 -2.690551
H 5.590284 -0.707745 -1.419446
H 7.696982 -1.109953 -1.435139
H 1.994006 -1.780260 5.165868
O -1.887066 -4.467529 2.276880
C -2.493741 -3.782617 3.089384
O -3.842288 -3.616232 3.133055
C -4.614559 -4.515863 2.326771
C -4.611688 -4.130816 0.852012
O -5.576928 -4.924508 0.162405
C -5.412527 -4.925940 -1.255347
C -5.746583 -3.583629 -1.903170
O -5.586642 -3.629698 -3.317101
C -1.843651 -3.006708 4.185640
C -2.495876 -2.906577 5.365259
H -4.270572 -5.548831 2.466563
H -5.640127 -4.493810 2.712286
H -3.614719 -4.280137 0.426668
H -4.867891 -3.071150 0.750838
H -4.398906 -5.250248 -1.518127
H -6.081756 -5.693008 -1.659980
H -5.106289 -2.786897 -1.520790
H -6.779424 -3.297695 -1.678969
H -4.704883 -3.993704 -3.505967
H -3.466898 -3.380327 5.495920
O -4.379817 0.050179 6.435191
C -3.489970 0.254582 5.621074
O -3.654566 0.526496 4.300630
C -5.027542 0.571611 3.864647
C -5.219117 1.715333 2.872180
O -4.902315 2.999795 3.407133
C -5.788535 3.436421 4.442252
C -5.508017 4.903155 4.760947
O -6.467211 5.425520 5.680894
C -2.045740 0.074087 5.960938
C -1.080993 0.963754 5.660195
H -5.725440 0.686522 4.699643
H -5.245477 -0.381883 3.369505
H -6.242453 1.728607 2.486999
H -4.544339 1.568375 2.021672
H -5.641605 2.832503 5.343862
H -6.834516 3.321262 4.130044
H -5.540886 5.499041 3.841336
H -4.511822 5.014100 5.198842
H -6.235189 6.364505 5.793856
H -0.073925 0.785643 6.037022
O -2.637058 4.972281 3.516048
C -2.005183 4.422640 2.626793
O -2.285810 4.459839 1.295758
C -3.457039 5.219300 0.957353
C -3.397311 5.588909 -0.522654
O -2.405067 6.603166 -0.705459
C -2.182272 6.904732 -2.088737
C -1.155090 8.028457 -2.179697
O 0.121390 7.564506 -1.741424
C -0.822898 3.543561 2.844424
C 0.323405 3.940895 2.253236
H -3.511404 6.132720 1.561845
H -4.335944 4.593395 1.140724
H -4.366312 5.985282 -0.845786
H -3.139419 4.712832 -1.125155
H -1.810848 6.005347 -2.589382
H -3.125392 7.222932 -2.545039
H -1.453149 8.870925 -1.546744
H -1.048777 8.374922 -3.210881
H 0.522894 8.283098 -1.223094
H 0.345589 4.889139 1.715799
O 0.563625 -0.261367 1.670404
C 0.255649 0.501633 0.762301
O -0.910713 0.498147 0.083265
C -1.912056 -0.459717 0.454049
C -2.196937 -1.360658 -0.740225
O -1.214322 -2.395735 -0.810078
C -1.549188 -3.372075 -1.794707
C -0.633296 -4.576721 -1.646422
O -1.035504 -5.597218 -2.552289
C 1.076967 1.696568 0.389107
C 1.050964 2.309199 -0.813519
H -2.811833 0.114388 0.703063
H -1.626068 -1.045211 1.334437
H -3.183669 -1.813692 -0.607344
H -2.165673 -0.792577 -1.674749
H -2.587108 -3.697489 -1.672195
H -1.466134 -2.942854 -2.797154
H 0.408840 -4.301514 -1.838058
H -0.692969 -4.962369 -0.623752
H -0.530609 -6.398014 -2.292863
H 1.698130 3.172309 -0.986991
O -3.516285 1.844563 -1.565430
C -3.176169 1.818080 -2.739821
O -3.808539 1.127283 -3.712674
C -4.750938 0.125145 -3.280545
C -5.986252 0.666279 -2.554947
O -6.291273 -0.231926 -1.480916
C -7.195168 0.335127 -0.538399
C -7.372083 -0.645058 0.616580
O -8.127190 -0.073429 1.675745
C -1.910774 2.453847 -3.227248
C -1.602277 2.950040 -4.443173
H -4.222730 -0.613070 -2.671510
H -5.074112 -0.410377 -4.179084
H -6.843713 0.685030 -3.235638
H -5.835458 1.685188 -2.180464
H -6.807306 1.286214 -0.155823
H -8.160162 0.530640 -1.017047
H -7.861570 -1.564473 0.274948
H -6.395976 -0.937319 1.017426
H -9.038165 0.056112 1.354909
H -0.582332 3.331848 -4.504879
O -0.995705 6.289088 -5.327911
C -0.197537 5.503632 -5.817615
O 1.078874 5.286876 -5.405068
C 1.496524 6.122192 -4.319470
C 2.987106 5.922561 -4.083122
O 3.449169 6.876897 -3.130043
C 4.856133 6.749137 -2.884530
C 5.247273 7.789292 -1.840381
O 4.918619 9.095381 -2.315473
C -0.553475 4.517539 -6.887749
C 0.305441 4.443801 -7.926848
H 1.289712 7.176810 -4.540137
H 0.945176 5.838143 -3.416824
H 3.167876 4.908878 -3.711173
H 3.537843 6.032089 -5.021740
H 5.391164 6.938515 -3.819644
H 5.085131 5.743686 -2.519734
H 6.320339 7.755674 -1.632482
H 4.698416 7.634115 -0.905652
H 3.987424 9.027993 -2.602548
H 1.198267 5.076937 -7.883968
O 6.282958 -3.275457 1.640363
C 5.228883 -3.652216 2.133434
O 5.084686 -4.317681 3.305479
C 6.310649 -4.754537 3.914358
C 7.031094 -3.638212 4.675117
O 6.265714 -3.277928 5.830042
C 7.032190 -2.595233 6.830828
C 7.438895 -1.178439 6.421606
O 6.318220 -0.299910 6.411751
C 3.905569 -3.551931 1.447037
C 2.861155 -2.914232 2.019442
H 6.039302 -5.558504 4.609139
H 6.965318 -5.192840 3.149627
H 7.149831 -2.752723 4.046188
H 8.013978 -4.010168 4.984132
H 7.911394 -3.194396 7.087824
H 6.392661 -2.543950 7.717097
H 8.157642 -0.777297 7.142887
H 7.897305 -1.145261 5.430085
H 5.587594 -0.762134 5.939443
H 1.896825 -2.917048 1.513855
O -0.160374 -5.212665 5.098074
C 0.712828 -4.601968 4.497968
O 1.829661 -5.157570 3.963164
C 1.926823 -6.588364 4.072399
C 1.079224 -7.274542 2.998411
O 1.701734 -7.111898 1.716278
C 0.850813 -7.558667 0.659936
C 1.591220 -7.426106 -0.664776
O 0.719980 -7.658901 -1.771739
C 0.673887 -3.137888 4.192798
C -0.494487 -2.493604 4.006246
H 1.626541 -6.911325 5.075739
H 2.985149 -6.842676 3.941679
H 1.012271 -8.347820 3.212610
H 0.068929 -6.849754 2.964421
H -0.062767 -6.956156 0.639974
H 0.563224 -8.603692 0.823216
H 2.423577 -8.138824 -0.705635
H 2.004988 -6.419497 -0.768396
H 1.289517 -7.615215 -2.567560
H -0.474059 -1.431442 3.771284
O -0.800894 -3.054813 8.605770
C -1.591702 -3.300544 7.710356
O -2.299634 -4.444369 7.558682
C -2.020155 -5.521691 8.468484
C -2.072781 -6.823217 7.675668
O -3.398393 -7.016629 7.167892
C -3.449061 -8.070258 6.210751
C -4.868117 -8.190723 5.666842
O -4.935710 -9.172186 4.638672
C -1.949748 -2.355152 6.600065
C -1.702513 -1.049979 6.831221
H -2.794620 -5.509179 9.243135
H -1.033645 -5.418317 8.934180
H -1.813761 -7.669677 8.318968
H -1.367935 -6.773893 6.840085
H -2.755023 -7.862369 5.387218
H -3.143698 -9.014937 6.674811
H -5.218720 -7.231611 5.269369
H -5.555665 -8.475936 6.467936
H -4.450463 -8.824981 3.873417
H -1.251516 -0.757583 7.781969
O -0.700442 4.490230 5.760606
C -1.351443 3.462987 5.844607
O -2.313088 3.194979 6.763126
C -2.609685 4.282340 7.651505
C -3.731184 3.837733 8.585299
O -4.932328 3.673266 7.826637
C -6.029578 3.190885 8.607275
C -6.831389 4.359225 9.180503
O -7.570755 5.025708 8.157715
C -1.179417 2.251853 4.982713
C -0.949034 2.341942 3.659708
H -1.715194 4.526352 8.236892
H -2.925279 5.152635 7.064894
H -3.468500 2.879614 9.051903
H -3.886216 4.590261 9.364225
H -5.676921 2.524464 9.400382
H -6.663172 2.613954 7.926772
H -6.178892 5.100411 9.651692
H -7.549455 3.997864 9.920690
H -7.032787 4.988626 7.336123
H -0.781922 1.419936 3.112626
O 3.871351 3.614906 2.973528
C 2.676448 3.654426 3.222642
O 2.119295 4.015796 4.403526
C 3.036992 4.390161 5.439593
C 3.638838 5.781581 5.208807
O 2.697324 6.795315 4.840049
C 1.639087 7.039574 5.774352
C 2.139059 7.768833 7.017901
O 2.822382 8.964126 6.648773
C 1.602654 3.246157 2.269250
C 1.931365 2.239079 1.435446
H 2.467969 4.376248 6.374452
H 3.826219 3.635038 5.544269
H 4.205092 6.100924 6.091095
H 4.352795 5.733128 4.381971
H 1.117986 6.118919 6.036502
H 0.925572 7.685699 5.249421
H 2.836532 7.148976 7.588246
H 1.304067 8.034890 7.672680
H 3.255419 8.769723 5.794339
H 2.897997 1.740147 1.522584
O 1.848983 0.239547 -2.544453
C 0.764415 0.763319 -2.771348
O -0.121811 0.335629 -3.708103
C 0.171995 -0.958808 -4.241523
C 1.300687 -0.952694 -5.274959
O 1.801883 -2.280024 -5.482864
C 2.825307 -2.616948 -4.531335
C 3.164552 -4.098902 -4.671970
O 2.046113 -4.896101 -4.277896
C 0.256787 1.930806 -1.980851
C -0.891615 2.609804 -2.183974
H -0.738769 -1.337993 -4.712083
H 0.378196 -1.653798 -3.418402
H 2.116648 -0.269461 -5.010637
H 0.904760 -0.584671 -6.227424
H 3.711796 -2.006822 -4.733114
H 2.468758 -2.420112 -3.514803
H 4.009230 -4.363128 -4.028475
H 3.408905 -4.352223 -5.706326
H 1.294141 -4.587669 -4.823467
H -1.167343 3.376000 -1.453275
O -3.852466 1.494130 -6.502905
C -3.651575 2.589724 -6.011318
O -4.572620 3.553547 -5.747942
C -5.825445 3.383891 -6.421365
C -6.767380 2.434239 -5.693836
O -7.997756 2.390919 -6.411050
C -8.896103 1.397809 -5.916145
C -10.179634 1.455347 -6.744558
O -9.923409 1.284657 -8.136173
C -2.307160 3.134077 -5.706290
C -1.814704 3.796896 -6.776400
H -6.288392 4.374050 -6.494961
H -5.670804 3.055523 -7.457664
H -6.945018 2.793348 -4.674787
H -6.330898 1.433279 -5.632751
H -9.117100 1.582113 -4.861083
H -8.426894 0.414299 -6.027665
H -10.875541 0.674134 -6.428614
H -10.671110 2.427183 -6.627938
H -8.995944 0.990766 -8.234602
H -2.423866 3.854448 -7.680978
O 1.557432 3.427626 -11.168320
C 1.520445 3.474275 -9.948436
O 2.591480 3.425293 -9.118738
C 3.874784 3.591662 -9.745968
C 4.110045 5.070228 -10.059798
O 4.054244 5.809736 -8.833798
C 4.071119 7.222340 -9.062889
C 3.945150 7.950987 -7.727110
O 2.611102 7.842087 -7.228132
C 0.271463 3.621017 -9.136822
C -0.842791 3.200154 -9.665840
H 3.959914 2.967891 -10.642840
H 4.618164 3.243650 -9.021076
H 3.339721 5.443046 -10.744687
H 5.096662 5.204100 -10.517815
H 5.017363 7.490206 -9.544586
H 3.233902 7.493641 -9.716470
H 4.619489 7.523070 -6.978547
H 4.168943 9.014019 -7.856327
H 2.578175 8.375453 -6.416061
H -1.728967 2.847769 -10.141508
