1072
Molecule ID: homopoly_5320686
O 9.012413 -8.989653 0.901973
C 7.783688 -8.921085 1.262438
O 6.915877 -9.977064 1.148695
C 7.343745 -11.199241 1.728120
C 7.774546 -12.193166 0.649815
O 6.659200 -12.337280 -0.291009
C 6.601761 -13.529007 -1.069553
O 5.357149 -13.772385 -1.702120
C 5.190178 -13.760598 -3.069917
C 5.206597 -14.876106 -3.865611
C 5.758296 -16.181495 -3.437055
C 5.036079 -17.389341 -3.546855
C 5.599155 -18.611753 -3.159377
C 6.872858 -18.630516 -2.626478
O 7.462866 -19.774273 -2.183778
C 7.632746 -17.486444 -2.546820
C 7.076541 -16.276424 -2.986922
O 4.616423 -14.944733 -5.100222
C 3.915016 -13.862394 -5.593600
C 3.282962 -14.038751 -6.844183
C 2.614851 -12.949699 -7.406721
O 2.018499 -13.019182 -8.622415
C 2.580952 -11.715364 -6.767172
C 3.228344 -11.570543 -5.553351
O 3.183126 -10.319483 -5.024025
C 3.886980 -12.620699 -4.927543
C 4.618523 -12.499785 -3.653728
O 4.842982 -11.429047 -3.106861
C 6.722245 -14.731200 -0.093834
O 5.731363 -14.754588 0.969339
C 8.113269 -14.687511 0.548642
O 8.311320 -15.863115 1.339024
C 8.263448 -13.458909 1.408443
O 7.584443 -13.637275 2.663548
C 7.127820 -7.691271 1.649748
C 6.025627 -6.987081 1.869989
C 4.894610 -8.013888 2.070816
C 4.879671 -8.799855 3.225439
C 4.256247 -10.052510 3.321100
C 3.579547 -10.525676 2.233133
O 2.928827 -11.709971 2.359829
C 3.545720 -9.803667 1.029411
C 4.184035 -8.563970 0.967674
H 8.079559 -11.118647 2.546060
H 6.429989 -11.615739 2.195137
H 8.586064 -11.696746 0.068570
H 7.408051 -13.504842 -1.827275
H 4.008502 -17.383561 -3.936086
H 4.996727 -19.545853 -3.238681
H 7.275216 -20.463071 -2.841226
H 8.642714 -17.517512 -2.128457
H 7.708279 -15.382850 -2.948661
H 3.311289 -15.006508 -7.373632
H 2.682786 -13.413203 -9.242891
H 2.057226 -10.892965 -7.237134
H 2.278774 -10.156898 -4.678990
H 6.530213 -15.659534 -0.597119
H 4.851061 -14.774069 0.524230
H 8.895801 -14.698002 -0.216735
H 7.433330 -16.224892 1.584322
H 9.291710 -13.316162 1.707484
H 7.210133 -14.553211 2.683467
H 5.510700 -8.532076 4.057488
H 4.369448 -10.707044 4.216039
H 2.264047 -11.715280 1.655813
H 3.156198 -10.263089 0.107480
H 4.336368 -8.143617 -0.026282
O 2.817572 -2.518236 2.463609
C 4.024439 -2.346462 2.673887
O 4.494053 -1.165601 3.205275
C 4.119175 0.176917 2.803617
C 3.656953 1.275769 3.764865
O 2.227985 1.319203 4.118673
C 1.911211 2.457274 4.983284
O 0.598322 2.475921 5.556600
C 0.676142 3.061309 6.833326
C 0.228243 4.287849 7.127739
C -0.664780 5.172148 6.280289
C -0.855543 6.535600 6.604516
C -1.792950 7.342357 5.962097
C -2.541559 6.777603 4.944002
O -3.532868 7.451154 4.304839
C -2.345210 5.477533 4.534130
C -1.409057 4.691567 5.199148
O 0.583808 4.929654 8.315709
C 1.414605 4.305902 9.212568
C 1.764850 5.028173 10.363525
C 2.633782 4.446729 11.274261
O 3.050486 5.092235 12.396471
C 3.139989 3.180581 11.086630
C 2.727430 2.467420 9.975892
O 3.139988 1.179718 9.979741
C 1.882723 3.020375 9.019951
C 1.488082 2.307819 7.826927
O 1.898602 1.172309 7.632849
C 2.153532 3.826793 4.331640
O 1.295872 4.050686 3.227649
C 3.597035 3.850574 3.908233
O 3.867367 5.060990 3.181360
C 3.917423 2.647857 3.077157
O 5.280128 2.857297 2.663687
C 5.161120 -3.408599 2.482132
C 6.187823 -3.187740 3.314179
C 7.658128 -3.496273 3.102976
C 8.155937 -4.771331 3.344694
C 9.475814 -5.159735 3.098651
C 10.370544 -4.220294 2.658795
O 11.649773 -4.666193 2.510880
C 9.963014 -2.930583 2.371556
C 8.613860 -2.578556 2.580664
H 5.088539 0.549849 2.450002
H 3.515461 0.142222 1.895011
H 4.218590 1.124489 4.713362
H 2.651521 2.351112 5.800342
H -0.241739 7.018477 7.374833
H -1.910068 8.383661 6.259555
H -3.720025 8.262957 4.792883
H -2.925713 5.077991 3.702250
H -1.286383 3.683509 4.798056
H 1.385294 6.029109 10.525869
H 2.512134 5.885788 12.505203
H 3.786629 2.708187 11.813077
H 2.638577 0.661416 9.298566
H 1.970364 4.681830 5.004402
H 1.748115 4.644060 2.598253
H 4.264986 3.867542 4.790554
H 4.844259 5.108209 3.212569
H 3.283954 2.682111 2.167582
H 5.247681 3.240878 1.751992
H 7.500361 -5.545301 3.701217
H 9.830636 -6.173708 3.274336
H 11.990673 -4.200324 1.729776
H 10.685392 -2.179321 2.055913
H 8.327437 -1.556587 2.320941
O 4.869600 -7.201066 6.691270
C 5.225177 -6.312338 5.930518
O 6.530332 -6.244155 5.529791
C 7.336213 -7.144623 6.308491
C 8.828774 -7.020865 6.044387
O 9.305141 -5.749668 6.523804
C 10.730246 -5.484397 6.546344
O 10.914596 -4.129830 6.927037
C 12.026084 -3.725541 7.643489
C 13.052750 -3.026707 7.097013
C 13.230263 -2.664896 5.672552
C 12.955185 -1.344593 5.268073
C 13.280165 -0.906079 3.992731
C 13.878165 -1.799962 3.116514
O 14.176871 -1.367460 1.864510
C 14.176895 -3.100462 3.471751
C 13.828846 -3.530078 4.758333
O 14.075045 -2.467468 7.831744
C 14.036182 -2.507704 9.204463
C 15.070040 -1.829944 9.866421
C 15.112651 -1.852912 11.246846
O 16.096494 -1.239759 11.963377
C 14.156559 -2.529243 11.977488
C 13.122075 -3.152536 11.306306
O 12.157073 -3.650777 12.138801
C 13.044222 -3.177314 9.914146
C 11.964843 -3.823669 9.144697
O 11.036417 -4.364997 9.711141
C 11.383865 -6.631032 7.375564
O 12.789104 -6.540210 7.479866
C 11.048840 -7.976567 6.699411
O 11.594319 -8.049267 5.364909
C 9.558934 -8.207808 6.667283
O 9.127780 -8.479887 7.988875
C 4.428706 -5.087084 5.386476
C 3.044973 -5.224757 5.217480
C 2.521612 -6.511956 5.797508
C 2.534305 -7.676359 5.055574
C 2.132356 -8.896047 5.636388
C 1.668641 -8.877437 6.939858
O 1.233262 -10.067137 7.458660
C 1.642789 -7.728827 7.712422
C 2.065138 -6.539577 7.119698
H 6.974914 -8.143528 6.060450
H 7.136964 -6.955255 7.367480
H 8.957188 -7.022761 4.955805
H 11.100128 -5.499474 5.503780
H 12.496669 -0.635350 5.952771
H 13.080076 0.121942 3.671715
H 15.145262 -1.244736 1.823843
H 14.639066 -3.776860 2.755372
H 14.047185 -4.558154 5.035051
H 15.844684 -1.305817 9.291949
H 16.678856 -0.800761 11.323382
H 14.187657 -2.545076 13.069706
H 11.359214 -3.806622 11.584040
H 11.008455 -6.608501 8.386710
H 13.156917 -6.366136 6.598691
H 11.544760 -8.796977 7.242352
H 12.558088 -8.178681 5.473658
H 9.321760 -9.099542 6.078740
H 8.965622 -7.643645 8.473709
H 2.812038 -7.656752 4.013970
H 2.166061 -9.825416 5.069883
H 1.945378 -10.345729 8.071664
H 1.297881 -7.757939 8.758025
H 2.025807 -5.634062 7.715297
O -1.522037 -5.625558 2.491281
C -0.301828 -5.621781 2.183004
O 0.467181 -6.610533 1.635882
C -0.325227 -7.896955 1.722596
C -1.833655 -8.040445 1.734896
O -2.254341 -8.449825 0.410753
C -3.125834 -9.575021 0.396451
O -3.364999 -9.927163 -0.987538
C -4.376067 -10.881620 -1.119812
C -4.102926 -12.174175 -1.446189
C -2.737259 -12.750850 -1.690645
C -1.615947 -12.007599 -2.098277
C -0.351071 -12.583698 -2.294179
C -0.231312 -13.952546 -2.116091
O 0.958112 -14.582890 -2.307790
C -1.289919 -14.732114 -1.693751
C -2.520219 -14.136468 -1.473251
O -5.095416 -13.136059 -1.436442
C -6.379991 -12.810506 -1.079220
C -7.289813 -13.870786 -1.132306
C -8.628358 -13.616296 -0.886209
O -9.494742 -14.647523 -1.016409
C -9.070277 -12.348711 -0.539568
C -8.132990 -11.327742 -0.442644
O -8.641012 -10.153075 0.031806
C -6.789707 -11.535386 -0.732128
C -5.753282 -10.495498 -0.720467
O -6.027965 -9.348182 -0.378113
C -2.469321 -10.778015 1.123584
O -3.375718 -11.855078 1.373985
C -1.775479 -10.367789 2.426329
O -1.987458 -11.346916 3.433539
C -2.245642 -8.982321 2.845180
O -3.646047 -9.064357 3.135844
C 0.448605 -4.375916 2.693493
C -0.092428 -3.254867 2.067668
C -0.722996 -2.316165 2.966453
C -2.131423 -2.355999 2.971915
C -2.872135 -1.388675 3.631443
C -2.262904 -0.341022 4.252020
O -3.014664 0.607761 4.864054
C -0.882113 -0.247432 4.240419
C -0.115078 -1.260750 3.625382
H 0.176876 -8.302428 2.636189
H 0.172745 -8.526776 0.951938
H -2.462075 -7.153695 1.832878
H -4.098714 -9.295622 0.840799
H -1.692196 -10.935925 -2.301298
H 0.477631 -11.957151 -2.629832
H 1.622856 -14.018485 -1.884585
H -1.161028 -15.812581 -1.568830
H -3.322682 -14.800981 -1.139066
H -6.994826 -14.877567 -1.405688
H -10.352110 -14.245158 -1.291296
H -10.107443 -12.121468 -0.307614
H -7.878199 -9.554406 0.214309
H -1.702364 -11.177723 0.475566
H -2.843265 -12.551010 1.808163
H -0.686328 -10.349022 2.257791
H -2.890877 -11.167221 3.754564
H -1.809996 -8.690722 3.826856
H -4.043118 -8.171183 3.071836
H -2.674360 -3.105300 2.426485
H -3.953740 -1.437975 3.598235
H -2.741414 1.474344 4.498060
H -0.412300 0.613232 4.695510
H 0.958048 -1.112639 3.616142
O 2.243315 -2.273871 -0.351596
C 1.754391 -1.307473 -0.935674
O 2.526240 -0.154608 -1.184602
C 3.905577 -0.453114 -0.999210
C 4.971555 0.592731 -1.312756
O 6.248957 -0.114713 -1.401888
C 7.172704 0.361929 -2.420129
O 8.375979 -0.381794 -2.517764
C 9.598240 0.194453 -2.728386
C 10.198314 0.363320 -3.950689
C 9.618510 0.166509 -5.302139
C 10.464957 -0.361559 -6.317151
C 10.092554 -0.392037 -7.652791
C 8.840612 0.076289 -7.991161
O 8.422984 0.082029 -9.286855
C 7.966042 0.583979 -7.049464
C 8.374591 0.635497 -5.710290
O 11.505067 0.763199 -4.061381
C 12.318949 0.849897 -2.958572
C 13.690915 1.070683 -3.211171
C 14.534290 1.289781 -2.141585
O 15.852115 1.575217 -2.315705
C 14.072706 1.242674 -0.841566
C 12.727042 1.017711 -0.614513
O 12.415876 1.142037 0.700109
C 11.820271 0.805582 -1.665478
C 10.404614 0.517557 -1.499659
O 9.898463 0.514655 -0.388911
C 7.215907 1.931277 -2.331994
O 7.443468 2.367441 -0.984116
C 5.836336 2.434622 -2.808432
O 5.539304 3.716314 -2.232524
C 4.697301 1.417830 -2.560881
O 3.429133 2.056092 -2.510258
C 0.265214 -1.358966 -1.257241
C -0.484604 -0.696813 -2.172527
C -1.677244 -1.405902 -2.666177
C -3.000581 -1.020540 -2.546643
C -4.000835 -1.613617 -3.306698
C -3.642534 -2.553310 -4.248208
O -4.619959 -2.970002 -5.123613
C -2.367045 -3.051091 -4.316745
C -1.390849 -2.493733 -3.517839
H 4.097475 -0.811679 0.015773
H 4.120783 -1.283963 -1.687863
H 5.004872 1.260203 -0.437873
H 6.702665 0.069060 -3.369463
H 11.464403 -0.718422 -6.058983
H 10.812057 -0.768194 -8.395816
H 9.202108 -0.095546 -9.836048
H 6.976760 0.953229 -7.361728
H 7.677422 1.090753 -5.021912
H 14.082329 1.119054 -4.233127
H 16.243314 0.735282 -2.631866
H 14.725087 1.443633 0.007700
H 11.520184 1.559062 0.734775
H 8.001882 2.409594 -2.916474
H 7.635001 3.324280 -0.992729
H 5.871106 2.603583 -3.892386
H 5.540166 4.364143 -2.969595
H 4.626910 0.730797 -3.403792
H 3.339311 2.497672 -1.646747
H -3.312048 -0.210364 -1.889490
H -5.058242 -1.332881 -3.185377
H -4.259838 -3.807966 -5.492310
H -2.077784 -3.829875 -5.029005
H -0.376464 -2.860725 -3.634895
O -1.650010 1.915763 -6.345487
C -1.640636 1.256045 -5.319277
O -1.222262 -0.051652 -5.323364
C -1.046330 -0.484952 -6.647111
C 0.030613 -1.393867 -7.106963
O 0.247233 -2.631052 -6.412701
C 0.944455 -3.607967 -7.211723
O 1.590502 -4.576803 -6.438303
C 2.073990 -5.657845 -7.168831
C 3.382064 -5.856589 -7.450552
C 4.492162 -4.938385 -6.991906
C 4.309963 -3.972970 -5.994786
C 5.310018 -3.089337 -5.609417
C 6.550772 -3.209278 -6.190346
O 7.483927 -2.361759 -5.714084
C 6.816523 -4.159422 -7.157375
C 5.783446 -5.007251 -7.566441
O 3.853544 -6.888823 -8.241120
C 2.970559 -7.810114 -8.758166
C 3.520727 -8.849636 -9.532760
C 2.657220 -9.793650 -10.080028
O 3.137871 -10.852053 -10.808522
C 1.288410 -9.739129 -9.886009
C 0.774346 -8.713142 -9.122360
O -0.568392 -8.649735 -8.914781
C 1.601258 -7.729063 -8.547055
C 1.085538 -6.618925 -7.719228
O -0.109573 -6.469245 -7.500476
C 1.852617 -2.956188 -8.312099
O 2.900412 -2.083955 -7.877590
C 0.979280 -2.171490 -9.288897
O 0.600716 -3.007797 -10.380809
C -0.266395 -1.661942 -8.624395
O -0.739397 -0.504111 -9.328237
C -2.041744 1.795700 -3.982578
C -3.124496 2.657016 -3.962105
C -3.498283 3.252889 -5.333317
C -4.146657 2.569537 -6.367872
C -4.217070 3.073547 -7.701522
C -3.647850 4.302935 -7.953477
O -3.526323 4.772861 -9.219322
C -3.068228 5.059580 -6.947322
C -2.992982 4.538918 -5.664984
H -2.042361 -0.804576 -6.967495
H -0.726544 0.371232 -7.208797
H 0.960200 -0.829839 -6.954698
H 0.106846 -4.126482 -7.723588
H 3.379469 -3.801727 -5.472561
H 5.108150 -2.310421 -4.867748
H 8.314906 -2.853933 -5.690360
H 7.796848 -4.243263 -7.643081
H 6.005774 -5.703568 -8.377307
H 4.589785 -8.891877 -9.693492
H 4.069223 -10.973306 -10.586452
H 0.677853 -10.521479 -10.324638
H -1.022307 -9.420416 -9.345460
H 2.426172 -3.720134 -8.866370
H 2.868486 -1.888561 -6.923155
H 1.525968 -1.311081 -9.684230
H 1.415861 -3.443340 -10.688054
H -1.085755 -2.382061 -8.654940
H -1.498093 -0.795018 -9.863147
H -4.576922 1.579502 -6.196790
H -4.677279 2.463146 -8.479684
H -3.631846 3.984436 -9.798286
H -2.588640 6.017866 -7.205011
H -2.434709 5.123352 -4.949376
O -5.799895 5.509006 0.315485
C -5.839078 4.556514 -0.389981
O -5.856237 3.235233 0.095645
C -5.655275 3.094219 1.487423
C -6.031033 1.722851 2.080061
O -7.470697 1.556629 2.085789
C -7.889796 0.526969 3.056283
O -9.144909 0.014597 2.598205
C -9.684232 -0.959191 3.442053
C -10.390679 -0.687545 4.544733
C -10.827894 0.672674 4.995936
C -11.359038 0.845439 6.297545
C -11.901713 2.049089 6.733619
C -11.876405 3.123348 5.873814
O -12.421945 4.308696 6.224089
C -11.339076 3.025846 4.604517
C -10.838927 1.805293 4.172799
O -10.786383 -1.676648 5.421493
C -10.417280 -2.981338 5.221117
C -10.825630 -3.882194 6.206190
C -10.523824 -5.216048 6.049851
O -11.017361 -6.099140 6.967570
C -9.773931 -5.684448 4.982643
C -9.390803 -4.776416 4.013518
O -8.720581 -5.336503 2.979931
C -9.719375 -3.413100 4.101970
C -9.352122 -2.383283 3.113230
O -8.690726 -2.656346 2.121577
C -6.823922 -0.597993 3.196160
O -5.822828 -0.254733 4.145681
C -6.215235 -0.789142 1.817584
O -5.400395 -1.963496 1.742954
C -5.392456 0.468529 1.456996
O -5.177326 0.553639 0.055183
C -5.922066 4.435266 -1.931411
C -6.599942 5.313688 -2.743007
C -7.290493 4.890365 -4.008130
C -6.677922 4.229344 -5.057664
C -7.342932 3.779564 -6.213256
C -8.668848 4.112917 -6.359393
O -9.282898 3.758265 -7.510031
C -9.328349 4.800854 -5.363506
C -8.640545 5.191798 -4.221426
H -4.601427 3.273740 1.717276
H -6.262776 3.871816 2.018705
H -5.729487 1.815038 3.130860
H -8.048532 1.077260 3.995326
H -11.350408 0.019788 7.023258
H -12.317382 2.101329 7.743610
H -13.273774 4.093232 6.651327
H -11.325366 3.885056 3.939860
H -10.463931 1.813622 3.137001
H -11.423105 -3.561983 7.067445
H -10.242463 -6.472486 7.411714
H -9.563285 -6.744981 4.848065
H -7.766383 -5.405421 3.231920
H -7.179259 -1.545979 3.580771
H -6.071691 -0.583209 5.027115
H -7.003585 -0.944598 1.061638
H -5.913162 -2.694403 2.141831
H -4.395072 0.333449 1.875922
H -5.942581 0.169067 -0.405306
H -5.614790 4.131633 -5.020740
H -6.814466 3.271557 -7.024296
H -10.225346 3.668702 -7.280547
H -10.351561 5.169797 -5.539488
H -9.145688 5.878257 -3.547539
O -5.364369 8.372140 0.530412
C -6.086000 9.197881 0.007794
O -6.252719 10.430212 0.515115
C -6.224889 10.586340 1.957803
C -5.339340 11.720837 2.313885
O -3.917528 11.421051 2.303296
C -3.072104 12.348006 3.087293
O -1.788295 12.482226 2.440111
C -0.685995 12.567988 3.314474
C -0.064215 13.706664 3.643675
C -0.424919 15.077088 3.157436
C -0.184549 16.190561 3.985859
C -0.486591 17.485585 3.594146
C -1.055214 17.666616 2.344001
O -1.327831 18.911434 1.865385
C -1.343746 16.609226 1.509470
C -1.001335 15.317105 1.909844
O 1.010482 13.762362 4.503044
C 1.452846 12.622651 5.113810
C 2.491046 12.810177 6.038938
C 3.022375 11.706839 6.681610
O 4.019827 11.932741 7.585718
C 2.523897 10.425351 6.458814
C 1.489644 10.271901 5.544976
O 1.097640 8.983805 5.390288
C 0.946060 11.365740 4.845370
C -0.150057 11.288930 3.858069
O -0.606145 10.194775 3.511520
C -3.692877 13.774042 3.274246
O -2.981481 14.490550 4.292962
C -5.163400 13.762322 3.672187
O -5.370662 14.365744 4.968523
C -5.726083 12.360399 3.655997
O -7.103252 12.489528 3.996673
C -6.907061 9.037316 -1.285634
C -7.645257 10.047410 -1.813395
C -8.453396 11.087242 -1.101434
C -9.876086 11.038732 -1.089195
C -10.631079 12.165470 -0.757867
C -9.976633 13.342010 -0.395473
O -10.657407 14.483177 -0.119508
C -8.606839 13.428684 -0.360830
C -7.871682 12.298297 -0.718669
H -5.961360 9.627859 2.487773
H -7.267926 10.789608 2.212259
H -5.416596 12.420977 1.443033
H -2.894282 11.857446 4.057307
H 0.229513 16.066299 4.997500
H -0.277539 18.311197 4.273352
H -0.737705 19.524064 2.353233
H -1.810358 16.787653 0.535452
H -1.225434 14.504081 1.202568
H 2.909679 13.794204 6.274039
H 3.878698 11.306768 8.317190
H 2.929667 9.540645 6.941590
H 0.897533 8.806901 4.437844
H -3.563148 14.312159 2.334209
H -3.659058 14.802217 4.949385
H -5.722978 14.393392 2.975315
H -6.256799 14.042301 5.261381
H -5.263328 11.781811 4.457241
H -7.580227 12.774876 3.193375
H -10.417554 10.176976 -1.486534
H -11.711702 12.126926 -0.896196
H -11.604580 14.303782 -0.273456
H -8.119055 14.378346 -0.170672
H -6.788431 12.412126 -0.817140
O 7.288694 -3.759658 0.317142
C 7.099412 -4.950781 0.533257
O 7.795895 -5.931246 -0.040616
C 8.705413 -5.397277 -0.999228
C 8.959305 -6.405555 -2.052812
O 9.904458 -7.409501 -1.666791
C 10.011358 -8.513799 -2.580092
O 11.412803 -8.783303 -2.763380
C 11.668113 -10.072204 -3.189166
C 11.817494 -11.126593 -2.378708
C 11.820544 -11.047642 -0.876906
C 11.632524 -12.214590 -0.113046
C 11.719994 -12.194660 1.276258
C 11.954988 -10.997205 1.927525
O 11.982483 -11.014604 3.279089
C 12.134805 -9.824386 1.223473
C 12.084670 -9.864050 -0.171553
O 11.972167 -12.423816 -2.843809
C 12.048766 -12.653329 -4.196888
C 12.263938 -13.979846 -4.595818
C 12.380774 -14.260197 -5.951586
O 12.624006 -15.522646 -6.406981
C 12.285286 -13.266080 -6.908014
C 12.083056 -11.958877 -6.496693
O 12.070061 -11.033611 -7.491866
C 11.954711 -11.641660 -5.142170
C 11.777777 -10.271035 -4.647498
O 11.731610 -9.320932 -5.453666
C 9.305257 -8.337175 -3.965227
O 9.009164 -9.619086 -4.558444
C 7.965213 -7.589713 -3.921471
O 7.989674 -6.456029 -4.798296
C 7.648724 -7.113435 -2.534015
O 6.469110 -6.332789 -2.517596
C 5.986514 -5.574862 1.368742
C 5.026896 -4.564156 1.486721
C 4.293600 -4.539875 0.209669
C 3.312870 -5.491033 -0.041885
C 2.791313 -5.690533 -1.307559
C 3.191828 -4.871367 -2.359823
O 2.741620 -5.054655 -3.624238
C 4.096987 -3.847439 -2.140183
C 4.644358 -3.710336 -0.842587
H 8.255225 -4.551214 -1.511444
H 9.564817 -5.094345 -0.417477
H 9.474510 -5.842810 -2.817610
H 9.584142 -9.360110 -2.035293
H 11.425342 -13.184885 -0.572538
H 11.600403 -13.119520 1.859358
H 11.843575 -10.087246 3.563924
H 12.320916 -8.863898 1.705863
H 12.268793 -8.907338 -0.670847
H 12.353300 -14.770289 -3.855376
H 12.889507 -16.077932 -5.637531
H 12.410801 -13.492074 -7.956631
H 11.291574 -10.443958 -7.333536
H 9.986837 -7.836479 -4.656552
H 8.405507 -10.090447 -3.960571
H 7.131109 -8.213402 -4.288284
H 7.775350 -6.767006 -5.702475
H 7.434378 -7.966958 -1.898001
H 6.194272 -6.143065 -3.439762
H 2.981271 -6.172874 0.741429
H 2.102018 -6.530106 -1.479827
H 2.342860 -5.966723 -3.642794
H 4.405641 -3.210887 -2.972698
H 5.357081 -2.909142 -0.743005
O 7.295148 -0.819602 4.662431
C 6.460400 -1.537374 5.240013
O 6.006757 -1.259324 6.507124
C 6.728902 -0.295102 7.259726
C 6.741462 -0.456121 8.796488
O 5.475312 -0.733813 9.469140
C 5.457395 -0.449269 10.923968
O 4.412174 -1.124407 11.616583
C 4.602151 -1.496131 12.937044
C 4.290255 -0.765875 14.030136
C 3.669045 0.578205 14.066145
C 2.399672 0.784055 13.538794
C 1.704502 1.965960 13.831887
C 2.300854 2.926438 14.624996
O 1.611876 4.056360 14.944650
C 3.569587 2.769051 15.136765
C 4.250101 1.584915 14.847086
O 4.412505 -1.234448 15.325016
C 4.804350 -2.523492 15.550069
C 4.818398 -2.941497 16.880847
C 5.261904 -4.215398 17.188527
O 5.300094 -4.575163 18.492792
C 5.710517 -5.082953 16.201069
C 5.638413 -4.657371 14.886791
O 5.939667 -5.624381 13.979864
C 5.190187 -3.384488 14.541081
C 5.065368 -2.885544 13.181321
O 5.324046 -3.643515 12.260664
C 6.885119 -0.337764 11.565879
O 7.725766 -1.476769 11.428272
C 7.572382 0.830210 10.858489
O 7.096405 2.062445 11.418260
C 7.368176 0.846067 9.344763
O 6.554564 1.969003 8.965898
C 5.832424 -2.873735 4.750456
C 5.226534 -3.791242 5.528898
C 5.741259 -3.721815 6.942305
C 7.125164 -3.812724 7.120932
C 7.639408 -4.033282 8.372511
C 6.755644 -4.197101 9.406451
O 7.246134 -4.495113 10.634394
C 5.389503 -4.052434 9.261630
C 4.875849 -3.787452 7.994938
H 7.776374 -0.304626 6.928310
H 6.282001 0.652570 6.985673
H 7.377018 -1.325522 9.035808
H 5.065047 0.577070 10.939130
H 1.921739 0.030431 12.914942
H 0.715702 2.118907 13.403180
H 1.006522 3.801829 15.667142
H 4.021717 3.533997 15.768190
H 5.241613 1.443332 15.282794
H 4.504523 -2.295799 17.713464
H 6.187190 -4.950810 18.641667
H 6.042756 -6.097889 16.409749
H 5.586228 -5.356060 13.104152
H 6.837309 -0.126133 12.647118
H 7.910365 -1.861030 12.309490
H 8.652517 0.771632 11.031638
H 7.872253 2.629471 11.621561
H 8.319194 1.047799 8.837450
H 6.111136 2.273780 9.783121
H 7.823444 -3.820469 6.293964
H 8.714740 -4.099452 8.500136
H 8.181941 -4.206498 10.595661
H 4.719200 -4.100110 10.106860
H 3.798002 -3.661333 7.862032
O 2.861927 -2.245116 5.843308
C 1.931602 -2.960743 5.545370
O 0.701746 -2.723501 6.006438
C 0.594059 -1.573921 6.875580
C -0.812309 -1.491441 7.447842
O -0.918087 -0.273846 8.201426
C -1.946022 -0.339183 9.173168
O -2.244722 0.943288 9.734581
C -3.623728 1.106600 9.914912
C -4.195575 1.192217 11.116277
C -3.456153 1.272093 12.390977
C -2.465526 2.259822 12.548667
C -1.917956 2.506562 13.794955
C -2.313271 1.734976 14.877195
O -1.779983 1.982366 16.095853
C -3.268307 0.743952 14.758361
C -3.835177 0.518343 13.504817
O -5.550671 1.309965 11.322004
C -6.369305 1.469818 10.236080
C -7.714491 1.651269 10.538442
C -8.624043 1.798486 9.498379
O -9.922126 1.979552 9.838811
C -8.228150 1.792197 8.183824
C -6.881088 1.615925 7.902277
O -6.569369 1.669057 6.580757
C -5.933270 1.443765 8.931346
C -4.496489 1.257348 8.714191
O -4.046951 1.275711 7.566590
C -1.521681 -1.290943 10.312176
O -2.671465 -1.717791 11.055885
C -0.675327 -2.454680 9.741016
O -0.664017 -3.628960 10.553850
C -1.107768 -2.756253 8.305909
O -2.508514 -3.052040 8.320636
C 1.980898 -4.241590 4.694240
C 0.738178 -4.657426 4.157465
C -0.404468 -5.268585 4.975269
C -0.575905 -6.628672 5.217593
C -1.690113 -7.231964 5.868929
C -2.762829 -6.438985 6.175993
O -3.854447 -6.938774 6.800542
C -2.715040 -5.099643 5.894276
C -1.549872 -4.532125 5.344355
H 1.354713 -1.682358 7.674765
H 0.876490 -0.685853 6.287648
H -1.518423 -1.418351 6.615370
H -2.864357 -0.695901 8.674406
H -2.135505 2.870708 11.700358
H -1.171334 3.303766 13.897699
H -2.291702 2.747204 16.445491
H -3.585615 0.155544 15.628594
H -4.615537 -0.253658 13.413405
H -8.082698 1.660902 11.560358
H -10.248682 2.673137 9.241654
H -8.920361 1.911051 7.341020
H -5.599701 1.850021 6.513952
H -0.919659 -0.731491 11.041682
H -2.378657 -1.966628 11.955516
H 0.370941 -2.119549 9.714975
H -1.065798 -3.416822 11.415125
H -0.630187 -3.678759 7.923492
H -2.873591 -2.834242 7.442636
H 0.142103 -7.335339 4.828029
H -1.714421 -8.312132 6.028842
H -3.540349 -7.642667 7.405356
H -3.602583 -4.493717 6.105295
H -1.602417 -3.463107 5.154500
O -0.649211 -5.155133 -0.336549
C -1.094994 -4.029407 -0.179252
O -2.412386 -3.684280 -0.532197
C -3.156479 -4.851906 -0.874968
C -4.433067 -4.841198 -1.713392
O -5.609407 -4.232099 -1.112945
C -6.863219 -4.368703 -1.902375
O -7.894083 -4.935291 -1.085034
C -9.065487 -5.307349 -1.746006
C -10.097133 -4.494890 -2.072777
C -10.266599 -3.034400 -1.778627
C -9.467436 -2.335750 -0.873496
C -9.685843 -0.991635 -0.581285
C -10.746233 -0.333411 -1.161297
O -10.959454 0.954885 -0.791131
C -11.569841 -0.960764 -2.073350
C -11.312580 -2.296118 -2.386783
O -11.195258 -4.939819 -2.807816
C -11.287123 -6.232888 -3.242259
C -12.436126 -6.581492 -3.985685
C -12.591433 -7.879869 -4.432940
O -13.688457 -8.292919 -5.125617
C -11.610620 -8.840546 -4.178682
C -10.468115 -8.476321 -3.459775
O -9.489436 -9.404715 -3.279093
C -10.299185 -7.179241 -2.958433
C -9.128629 -6.746703 -2.153283
O -8.233352 -7.499914 -1.853606
C -6.642304 -5.026776 -3.305106
O -7.769365 -5.195465 -4.165099
C -5.755481 -6.275030 -3.270819
O -5.022974 -6.268001 -4.535474
C -4.794890 -6.309650 -2.084863
O -3.678066 -7.130804 -2.409958
C -0.360476 -2.994275 0.583718
C -0.421998 -1.710042 0.016926
C -0.647431 -0.448515 0.744532
C -1.910155 0.102772 0.676092
C -2.126032 1.425668 1.025819
C -1.065757 2.176223 1.502877
O -1.255366 3.430953 1.945100
C 0.203191 1.655952 1.569597
C 0.412740 0.338798 1.188899
H -2.463756 -5.423893 -1.506544
H -3.352339 -5.381982 0.071405
H -4.183773 -4.233101 -2.578819
H -7.175987 -3.311014 -2.054742
H -8.646187 -2.790583 -0.327728
H -9.040928 -0.461716 0.119350
H -11.919868 1.093002 -0.807811
H -12.380571 -0.432484 -2.564314
H -11.957640 -2.757381 -3.140864
H -13.206475 -5.820173 -4.192815
H -14.326213 -7.548372 -5.130244
H -11.761176 -9.845255 -4.556651
H -9.864114 -10.306996 -3.397175
H -6.074682 -4.275576 -3.863517
H -7.439728 -5.703978 -4.949313
H -6.321772 -7.213428 -3.328478
H -4.364240 -6.996787 -4.474913
H -5.281835 -6.742570 -1.225675
H -3.973595 -8.081233 -2.401505
H -2.743695 -0.496129 0.308265
H -3.099346 1.843141 0.890134
H -2.218784 3.542776 2.037700
H 1.012848 2.279863 1.900389
H 1.433541 -0.043927 1.243724
O 1.928832 -0.482226 -3.701198
C 1.109071 0.431334 -3.782941
O 1.123586 1.341090 -4.760682
C 2.261689 1.287377 -5.600210
C 2.045961 1.895530 -6.990075
O 3.161978 1.336808 -7.755809
C 3.684139 2.252406 -8.719810
O 4.651037 1.594050 -9.592219
C 4.930304 2.385787 -10.708929
C 4.129280 2.492953 -11.786476
C 2.884573 1.716584 -12.028333
C 2.832078 0.349298 -11.766998
C 1.721286 -0.403299 -12.132283
C 0.633852 0.222889 -12.712087
O -0.463595 -0.477576 -13.103786
C 0.631114 1.577642 -12.955694
C 1.757982 2.316256 -12.621016
O 4.386970 3.357139 -12.821233
C 5.484407 4.179016 -12.769596
C 5.673463 4.994858 -13.884412
C 6.770617 5.830258 -13.909507
O 6.971977 6.584763 -15.013712
C 7.663933 5.905974 -12.859989
C 7.467722 5.068493 -11.777613
O 8.425415 5.193861 -10.816517
C 6.384551 4.188520 -11.706028
C 6.132531 3.248780 -10.593722
O 6.851367 3.231949 -9.604809
C 4.226202 3.586833 -8.061565
O 4.331798 4.652035 -9.046066
C 3.264482 4.108302 -6.964179
O 3.872418 3.907142 -5.692087
C 1.920549 3.420490 -7.197430
O 0.840167 4.153423 -6.702726
C -0.095705 0.572814 -2.880675
C -0.902352 1.686063 -2.971713
C -0.058557 2.927458 -2.864474
C 0.666653 3.171974 -1.700132
C 1.617122 4.183125 -1.633777
C 1.835244 4.982288 -2.756021
O 2.882423 5.843016 -2.833420
C 1.062494 4.856787 -3.883396
C 0.135754 3.818554 -3.918299
H 2.558550 0.239558 -5.732582
H 3.077064 1.762101 -5.049771
H 1.132104 1.431347 -7.397439
H 2.840303 2.444641 -9.381358
H 3.666233 -0.148533 -11.274163
H 1.728668 -1.472954 -11.944613
H -0.172764 -1.402316 -13.188134
H -0.236170 2.035666 -13.441223
H 1.733657 3.382811 -12.862209
H 5.001569 4.946607 -14.747792
H 6.727803 7.496243 -14.741536
H 8.546057 6.535733 -12.872499
H 7.970551 5.590465 -10.035082
H 5.223354 3.424246 -7.644541
H 4.429297 5.506451 -8.565827
H 3.122976 5.203212 -7.023989
H 3.864867 4.762847 -5.202348
H 1.700589 3.530540 -8.289615
H 0.650562 4.922307 -7.287449
H 0.588632 2.476747 -0.870824
H 2.224971 4.264794 -0.732244
H 3.450678 5.586033 -2.076588
H 1.244254 5.496713 -4.751931
H -0.391605 3.685607 -4.856668
O -2.007959 4.964208 -2.720128
C -2.988978 4.485895 -2.230229
O -3.434858 4.948300 -1.022244
C -2.437930 5.485174 -0.151136
C -2.046938 6.969282 -0.172250
O -1.481963 7.482879 -1.406310
C -1.033396 8.880555 -1.278516
O -0.884702 9.570635 -2.521016
C 0.218107 10.383096 -2.729595
C 0.193414 11.738735 -2.636154
C -0.994839 12.589931 -2.264120
C -1.056464 13.916308 -2.736588
C -2.111837 14.772534 -2.436460
C -3.160869 14.288857 -1.677946
O -4.243272 15.081378 -1.436701
C -3.152681 13.020362 -1.153847
C -2.057411 12.196477 -1.449187
O 1.320620 12.515622 -2.874725
C 2.480281 11.949415 -3.330041
C 3.509935 12.833042 -3.706834
C 4.713631 12.313917 -4.167170
O 5.756061 13.111799 -4.526156
C 4.930795 10.956764 -4.232260
C 3.895794 10.106883 -3.876752
O 4.168678 8.789354 -4.112095
C 2.657684 10.581123 -3.429085
C 1.509770 9.722449 -3.115362
O 1.630866 8.506077 -3.167488
C 0.014264 9.078614 -0.081767
O 1.222941 9.812698 -0.280310
C 0.286007 7.726735 0.620191
O 1.035798 6.773595 -0.119980
C -1.079232 7.152091 1.025495
O -1.660281 7.954009 2.035183
C -3.839957 3.340661 -2.799560
C -5.203610 3.182499 -2.506273
C -6.174456 2.086242 -2.957287
C -5.833750 1.061357 -3.837676
C -6.759866 0.198831 -4.445517
C -8.097129 0.341933 -4.152277
O -9.035109 -0.419453 -4.743652
C -8.515690 1.300815 -3.259436
C -7.569148 2.131768 -2.653221
H -2.855495 5.315986 0.843829
H -1.554398 4.806105 -0.201127
H -3.024754 7.477310 -0.041051
H -1.971710 9.332471 -0.919378
H -0.283209 14.305332 -3.409910
H -2.127030 15.778777 -2.871338
H -3.928121 16.011276 -1.469690
H -3.979700 12.631260 -0.562969
H -2.103813 11.211503 -1.008824
H 3.383955 13.913015 -3.655926
H 5.882076 13.737851 -3.793895
H 5.878832 10.562359 -4.592128
H 3.303645 8.312881 -4.093327
H -0.524231 9.712832 0.637722
H 1.783562 9.669076 0.511142
H 0.917621 7.899462 1.501923
H 1.792851 7.221194 -0.571623
H -0.865603 6.191928 1.510712
H -2.315689 8.592507 1.673506
H -4.799462 0.877457 -4.099489
H -6.372026 -0.573083 -5.111554
H -8.571764 -0.912499 -5.444576
H -9.582149 1.414241 -3.050303
H -8.004212 2.872103 -1.979923
O -4.874870 6.957837 -4.229385
C -5.975761 7.350626 -3.880144
O -6.876934 7.959220 -4.760323
C -6.474093 7.914092 -6.160638
C -7.448766 8.646105 -7.092124
O -6.966387 8.728905 -8.449446
C -7.220159 7.677366 -9.394209
O -6.023035 6.911590 -9.580489
C -5.837489 6.416844 -10.867689
C -5.417531 7.127085 -11.927367
C -5.150704 8.598346 -11.905535
C -5.370915 9.375184 -13.051943
C -5.215941 10.759329 -13.041598
C -4.843851 11.377323 -11.856108
O -4.739069 12.733064 -11.764297
C -4.599632 10.661434 -10.707572
C -4.731780 9.276261 -10.753475
O -5.272906 6.588943 -13.190822
C -5.449416 5.237456 -13.379329
C -5.220577 4.763538 -14.672706
C -5.376837 3.413529 -14.932525
O -5.138126 2.989957 -16.202476
C -5.753711 2.513131 -13.939579
C -5.998702 3.009632 -12.667576
O -6.420691 2.123514 -11.718192
C -5.857476 4.376648 -12.369031
C -6.164221 4.978435 -11.058484
O -6.745199 4.353314 -10.188879
C -8.433393 6.805483 -9.089856
O -9.050783 6.332125 -10.293395
C -9.438740 7.682774 -8.343606
O -10.675703 6.968392 -8.151369
C -8.862541 8.077556 -7.006106
O -9.702424 9.038017 -6.416296
C -6.634430 6.820290 -2.565502
C -7.235185 7.555765 -1.597916
C -8.263752 6.928811 -0.565143
C -8.688388 7.632508 0.584416
C -9.607928 7.131559 1.524040
C -10.127369 5.873185 1.283490
O -11.102698 5.376773 2.085310
C -9.786259 5.123826 0.184761
C -8.880270 5.661917 -0.741736
H -6.481127 6.848968 -6.440065
H -5.469527 8.312690 -6.294807
H -7.444939 9.695568 -6.747764
H -7.421797 8.210832 -10.327472
H -5.682817 8.894071 -13.987982
H -5.384948 11.312489 -13.964953
H -5.181326 13.094749 -12.547569
H -4.329955 11.176309 -9.771529
H -4.510255 8.755641 -9.817956
H -4.922968 5.434461 -15.487236
H -4.620942 2.162203 -16.126068
H -5.921891 1.457119 -14.144311
H -6.005174 1.253483 -11.873220
H -8.173227 5.918771 -8.524482
H -8.522169 5.549473 -10.557734
H -9.699675 8.572440 -8.925444
H -11.017419 6.835616 -9.060903
H -8.884452 7.212631 -6.345808
H -9.807190 8.810241 -5.468135
H -8.314473 8.619174 0.838456
H -9.850483 7.734803 2.399780
H -11.598733 6.150581 2.397924
H -10.213398 4.137934 0.016237
H -8.686030 5.013754 -1.568899
O -7.163109 12.083150 -4.979456
C -7.715462 11.598076 -4.005394
O -8.960066 12.047177 -3.610560
C -9.507033 12.969159 -4.551018
C -9.922836 12.155987 -5.783440
O -10.858147 11.150889 -5.300711
C -12.182316 11.645693 -5.073454
O -12.896738 10.645412 -4.345202
C -14.173362 10.406869 -4.814640
C -15.217217 11.154892 -4.499770
C -15.111713 12.309480 -3.550632
C -14.563994 12.131737 -2.270619
C -14.395915 13.193212 -1.377251
C -14.772239 14.457512 -1.788459
O -14.618610 15.539062 -0.989949
C -15.315007 14.681792 -3.046026
C -15.481092 13.603582 -3.917117
O -16.468344 10.969153 -5.060956
C -16.642618 9.916393 -5.926044
C -17.946605 9.728162 -6.402914
C -18.206332 8.681553 -7.274562
O -19.483505 8.498536 -7.702116
C -17.208672 7.834170 -7.726388
C -15.921672 8.032175 -7.255010
O -15.042335 7.101356 -7.700048
C -15.626986 9.053145 -6.341516
C -14.292545 9.267605 -5.764194
O -13.339120 8.545905 -6.036794
C -12.710300 12.123860 -6.466168
O -12.493044 11.107861 -7.471902
C -11.857943 13.362865 -6.817084
O -12.367647 14.011632 -7.984942
C -10.402851 12.934947 -6.996732
O -9.584934 14.054323 -7.282560
C -7.098065 10.508431 -3.176141
C -5.879658 10.383632 -3.429778
C -4.589992 10.696124 -3.985812
C -3.790380 9.749942 -4.537550
C -2.824317 10.063012 -5.469116
C -2.644294 11.404910 -5.756469
O -1.748206 11.804720 -6.694361
C -3.364049 12.395347 -5.135013
C -4.325711 12.034780 -4.225104
H -10.340650 13.414360 -4.043267
H -8.786379 13.784868 -4.765483
H -9.085585 11.550167 -6.130882
H -12.134273 12.476260 -4.373925
H -14.250537 11.129970 -1.960844
H -13.988494 12.992884 -0.380481
H -14.176690 15.279185 -0.162460
H -15.617450 15.691186 -3.338861
H -15.904628 13.814952 -4.902711
H -18.779557 10.362468 -6.123957
H -19.520834 7.609517 -8.098327
H -17.368750 7.021094 -8.419530
H -14.373799 6.947529 -6.999730
H -13.755584 12.375166 -6.552406
H -11.828930 10.451836 -7.142423
H -11.937093 14.119675 -6.039238
H -11.730596 13.870641 -8.711696
H -10.317677 12.282864 -7.878596
H -9.037685 13.833973 -8.066410
H -3.914095 8.700555 -4.312083
H -2.270136 9.260832 -5.942225
H -1.555742 11.012694 -7.226717
H -3.231313 13.446382 -5.411123
H -4.975613 12.812907 -3.805837
