672
Molecule ID: homopoly_5951923
C 13.305720 -1.770973 -4.525531
N 13.427236 -0.344998 -4.271861
C 13.022284 0.217764 -3.060020
O 13.037090 1.439560 -2.847627
C 12.466426 -0.746459 -2.000671
O 11.964562 -0.089327 -0.855488
C 10.840273 0.646108 -1.141739
O 10.156480 0.637229 -2.164997
C 10.380721 1.394731 0.035056
C 10.417870 1.853833 1.276704
C 11.725384 1.646790 2.009006
C 11.727383 1.333761 3.374648
C 12.943511 1.030169 4.002958
C 14.134961 0.965211 3.279539
C 14.108960 1.258575 1.919088
N 15.221407 0.870612 1.081689
O 16.354727 1.219516 1.446949
O 14.963158 0.076754 0.158873
C 12.932753 1.668498 1.283772
C 13.769020 0.588458 -5.356103
C 14.480470 -0.012074 -6.583112
C 14.689515 1.144211 -7.539055
S 13.144330 2.041431 -7.490699
O 12.342470 1.534087 -8.612127
O 13.445776 3.444727 -7.306710
C 12.551344 1.332016 -5.953537
H 13.696630 -2.326518 -3.673850
H 13.897023 -2.072249 -5.393548
H 12.255188 -2.017424 -4.714886
H 13.279638 -1.398206 -1.656344
H 11.665230 -1.382256 -2.415292
H 10.805663 1.266744 3.959395
H 12.951650 0.764210 5.069538
H 15.052595 0.654500 3.766926
H 12.947477 1.920929 0.215010
H 14.425180 1.361123 -4.926729
H 15.415733 -0.506403 -6.315317
H 13.817776 -0.738603 -7.056513
H 15.491921 1.799073 -7.183439
H 14.911963 0.818673 -8.551220
H 12.179249 2.121282 -5.296996
H 11.737855 0.636561 -6.162737
C 12.018140 -3.311523 2.577499
N 10.709152 -3.655951 2.030022
C 9.621075 -2.767408 2.210346
O 8.500191 -3.124089 2.532714
C 9.901830 -1.298894 1.809406
O 9.336575 -0.165727 2.530777
C 8.035408 0.142690 2.228691
O 7.250613 -0.568318 1.601398
C 7.659232 1.480609 2.872636
C 6.386262 1.491180 3.405239
C 5.811618 2.654536 4.185234
C 6.310919 2.945818 5.463469
C 5.810688 4.034654 6.175059
C 4.815058 4.868184 5.632991
C 4.329195 4.581436 4.355855
N 3.427531 5.503698 3.677667
O 3.013882 5.170295 2.538694
O 3.155209 6.558783 4.247465
C 4.776240 3.462298 3.654924
C 10.353582 -5.074673 2.013031
C 10.421205 -5.742717 3.387401
C 10.210978 -7.228789 3.138275
S 11.166444 -7.605341 1.681751
O 12.482979 -7.983057 2.122791
O 10.323091 -8.386746 0.778598
C 11.243057 -5.909046 1.080592
H 12.367306 -2.328730 2.263760
H 12.772658 -4.031170 2.257939
H 11.950529 -3.321432 3.672536
H 10.962870 -1.097060 1.879148
H 9.665230 -1.236424 0.729617
H 7.117006 2.353157 5.899589
H 6.206453 4.251815 7.160024
H 4.463241 5.735507 6.197248
H 4.393278 3.273624 2.644937
H 9.329181 -5.191882 1.642988
H 9.677217 -5.324243 4.077054
H 11.401039 -5.585677 3.838063
H 9.159678 -7.435180 2.952689
H 10.564946 -7.829136 3.975261
H 10.924804 -5.840486 0.036678
H 12.303514 -5.614769 1.115821
C 6.487479 -3.242723 -0.209134
N 5.579301 -3.358409 -1.351345
C 4.541171 -2.450380 -1.586378
O 4.172483 -2.221844 -2.759598
C 3.764723 -1.808688 -0.424921
O 4.112137 -1.757480 0.940060
C 3.019229 -1.379282 1.687674
O 1.890123 -1.167531 1.259873
C 3.397752 -1.124741 3.120450
C 2.450084 -1.461575 4.068853
C 2.712720 -1.261186 5.552137
C 2.479960 -2.310448 6.449421
C 2.648143 -2.126355 7.823610
C 3.018719 -0.878784 8.328131
C 3.205066 0.178700 7.455382
N 3.506973 1.515518 7.965431
O 3.874992 1.599009 9.152172
O 3.331021 2.470409 7.195171
C 3.091283 -0.001439 6.065501
C 5.998057 -4.158448 -2.523416
C 7.120230 -3.520206 -3.348400
C 8.433316 -4.097906 -2.847285
S 8.079627 -5.802228 -2.482298
O 8.303603 -6.544917 -3.707921
O 8.729409 -6.116945 -1.222234
C 6.332571 -5.625417 -2.238128
H 7.004680 -4.186455 -0.025617
H 5.959627 -2.972648 0.699816
H 7.218211 -2.458522 -0.424482
H 2.805637 -2.316542 -0.553938
H 3.601860 -0.777251 -0.777495
H 2.152317 -3.283134 6.081858
H 2.459931 -2.952058 8.493373
H 3.110832 -0.751480 9.407704
H 3.240240 0.840582 5.378822
H 5.120519 -4.195073 -3.198167
H 7.128369 -2.424124 -3.283936
H 6.998192 -3.794269 -4.408309
H 9.226059 -4.016304 -3.601716
H 8.762384 -3.589171 -1.939522
H 5.818686 -6.278588 -2.959173
H 6.057425 -5.925930 -1.227795
C -5.370241 3.800484 3.572672
N -5.313740 2.972961 4.767202
C -4.242680 2.141340 5.091118
O -4.213761 1.570490 6.197817
C -3.135532 1.890959 4.071722
O -2.740530 0.526130 4.255501
C -1.904848 0.063600 3.288291
O -1.372862 0.689396 2.384168
C -1.595231 -1.425123 3.520223
C -2.675148 -2.298766 3.242365
C -4.015079 -1.581287 3.171137
C -4.307920 -0.673991 2.144311
C -5.494237 0.050830 2.171459
C -6.426056 -0.123546 3.193184
C -6.136438 -1.012562 4.227413
N -7.094083 -1.215604 5.312555
O -8.131204 -0.522248 5.285968
O -6.828008 -2.067344 6.160741
C -4.928802 -1.717098 4.242437
C -6.433323 3.077383 5.719206
C -7.802950 3.295905 5.066980
C -8.758960 3.538194 6.221868
S -7.872826 4.621380 7.324805
O -8.153986 5.990991 6.932042
O -8.017626 4.130837 8.678939
C -6.236292 4.213104 6.732426
H -5.851260 4.755040 3.796647
H -5.944742 3.269354 2.816152
H -4.374555 4.016317 3.210948
H -3.456192 2.092781 3.045543
H -2.268310 2.489222 4.348658
H -3.567845 -0.438422 1.378061
H -5.697880 0.764556 1.378660
H -7.356687 0.435513 3.161779
H -4.724618 -2.376819 5.086626
H -6.501343 2.133326 6.284073
H -8.102050 2.428690 4.464277
H -7.820910 4.175656 4.423348
H -8.965777 2.596968 6.740598
H -9.697724 3.988916 5.893610
H -5.599951 3.893316 7.566782
H -5.781362 5.096001 6.267345
C -10.356336 -6.310331 -1.388764
N -9.592124 -5.581951 -0.376642
C -8.406336 -4.962808 -0.815586
O -7.994529 -5.132761 -1.974873
C -7.594164 -4.068780 0.147097
O -6.309924 -4.656170 0.335679
C -5.475220 -3.943257 1.131347
O -5.854364 -2.980203 1.811814
C -4.080750 -4.534580 1.232883
C -3.659225 -5.284107 0.127550
C -2.752566 -6.453947 0.296713
C -3.329201 -7.724641 0.510174
C -2.535437 -8.855482 0.680758
C -1.150761 -8.748153 0.639816
C -0.568097 -7.507379 0.435035
N 0.893324 -7.393583 0.444708
O 1.549121 -8.447277 0.577842
O 1.377112 -6.262274 0.379054
C -1.354204 -6.343512 0.284009
C -10.066142 -5.594879 1.026376
C -11.084967 -4.488202 1.313217
C -12.487901 -5.014926 1.037934
S -12.431495 -6.775564 1.363815
O -13.034100 -7.018616 2.658376
O -12.839761 -7.475792 0.153063
C -10.658129 -6.913296 1.527745
H -9.967836 -6.146062 -2.396887
H -10.312593 -7.383841 -1.188848
H -11.380462 -5.964700 -1.392677
H -8.076772 -3.906260 1.104332
H -7.516205 -3.101616 -0.366803
H -4.405594 -7.823458 0.564412
H -3.018861 -9.807001 0.844552
H -0.554754 -9.656218 0.775989
H -0.874318 -5.365953 0.193302
H -9.184422 -5.404916 1.645221
H -11.022004 -4.224755 2.377590
H -10.886221 -3.576360 0.734359
H -13.220783 -4.555974 1.715293
H -12.800733 -4.841875 0.004898
H -10.286463 -7.787572 0.982734
H -10.446581 -7.037618 2.595394
C -7.691872 0.399613 -2.757453
N -6.984418 1.616029 -2.298757
C -5.915816 1.539816 -1.393071
O -5.897599 2.311936 -0.420636
C -4.655018 0.609661 -1.615657
O -4.542450 -0.453007 -2.526877
C -4.993419 -1.615590 -2.022301
O -5.454782 -1.745522 -0.881772
C -4.602054 -2.818887 -2.828742
C -4.671600 -2.750116 -4.214778
C -4.814068 -3.963481 -5.110275
C -5.949298 -4.807087 -5.039175
C -6.171354 -5.776791 -6.019632
C -5.319868 -5.888914 -7.112202
C -4.259610 -4.991902 -7.237307
N -3.305480 -5.149702 -8.320382
O -2.800530 -4.097651 -8.787627
O -2.993306 -6.309261 -8.609964
C -4.046012 -4.003622 -6.286167
C -7.875215 2.790789 -2.274372
C -8.867375 2.839335 -1.115655
C -9.689407 4.106410 -1.386341
S -8.443768 5.356812 -1.720613
O -8.931559 6.178684 -2.838222
O -8.033923 5.874504 -0.439581
C -7.211244 4.185146 -2.318856
H -8.674186 0.422547 -2.261833
H -7.099940 -0.508010 -2.638534
H -7.909286 0.591587 -3.832580
H -4.431151 0.247313 -0.591922
H -3.837827 1.309188 -1.825874
H -6.611123 -4.744853 -4.173932
H -7.005006 -6.451909 -5.900741
H -5.480826 -6.662233 -7.863185
H -3.258398 -3.259041 -6.427961
H -8.473460 2.727296 -3.191407
H -9.534244 1.984916 -1.102153
H -8.384999 2.894373 -0.142637
H -10.302901 3.969198 -2.287443
H -10.314111 4.413676 -0.550874
H -6.370703 4.248733 -1.627800
H -6.887309 4.446761 -3.342304
C 1.533296 -3.811645 -8.613479
N 0.507329 -4.446709 -7.765116
C -0.405737 -3.735701 -6.956551
O -1.144906 -4.299579 -6.152869
C -0.483306 -2.197853 -7.187609
O -1.495265 -1.261607 -6.743173
C -1.961102 -1.299154 -5.453155
O -1.816094 -2.192783 -4.608979
C -2.818589 -0.071288 -5.145933
C -2.294971 1.209697 -5.321152
C -1.325605 1.444871 -6.431958
C -0.034019 0.889071 -6.424916
C 0.876085 1.172128 -7.443826
C 0.532596 2.057515 -8.456795
C -0.748506 2.625301 -8.465835
N -1.132722 3.550003 -9.536004
O -2.235837 4.128938 -9.427331
O -0.344886 3.700292 -10.480867
C -1.673530 2.305258 -7.471934
C 0.458175 -5.903403 -7.670017
C 0.533581 -6.613364 -9.020955
C 0.464872 -8.101129 -8.707580
S 1.510015 -8.301031 -7.270595
O 2.836052 -8.668388 -7.739171
O 0.771126 -9.038912 -6.266417
C 1.540293 -6.550471 -6.805298
H 1.428337 -4.214738 -9.635353
H 1.381259 -2.717307 -8.625707
H 2.521089 -4.039411 -8.174308
H 0.468854 -1.790084 -6.846385
H -0.534920 -2.060487 -8.271311
H 0.272000 0.187770 -5.644305
H 1.862709 0.715901 -7.430557
H 1.251402 2.297168 -9.244222
H -2.679650 2.727481 -7.516845
H -0.498347 -6.204203 -7.223500
H -0.279768 -6.303617 -9.685609
H 1.477600 -6.393760 -9.516101
H 0.826329 -8.720536 -9.530407
H -0.552925 -8.390203 -8.446026
H 1.353032 -6.473224 -5.726804
H 2.538295 -6.153028 -7.016171
C -3.433835 8.655902 -0.185301
N -3.757401 7.447557 0.555096
C -4.381064 6.464659 -0.261918
O -5.163365 6.832211 -1.118193
C -4.314104 4.974814 0.235804
O -3.599874 3.974863 -0.498816
C -3.469582 4.115042 -1.820375
O -4.359652 4.357615 -2.637136
C -2.083965 3.847874 -2.290477
C -1.092249 4.673268 -1.803185
C 0.228433 4.838064 -2.492509
C 1.358286 4.365274 -1.798970
C 2.639514 4.757340 -2.235344
C 2.793286 5.646393 -3.299884
C 1.650637 6.149522 -3.942468
N 1.715163 7.476487 -4.540885
O 1.227289 7.612074 -5.678392
O 1.911323 8.376900 -3.728128
C 0.375179 5.716083 -3.578891
C -4.407971 7.662829 1.850231
C -3.805609 8.779321 2.713744
C -4.660878 8.804213 3.963091
S -6.339175 8.536453 3.379904
O -7.011081 9.813092 3.311050
O -6.881592 7.367698 4.050497
C -5.891240 8.041056 1.728722
H -2.657477 9.202266 0.339718
H -3.057055 8.406096 -1.177254
H -4.300987 9.301230 -0.311459
H -5.357419 4.673041 0.457265
H -3.821911 4.994839 1.227028
H 1.261936 3.747348 -0.908065
H 3.515012 4.399968 -1.694484
H 3.784385 6.033800 -3.552151
H -0.526737 6.179105 -4.002495
H -4.344715 6.722188 2.411089
H -2.756625 8.605001 2.950368
H -3.903057 9.733616 2.203179
H -4.605021 9.764008 4.471022
H -4.377051 7.996824 4.635611
H -6.033662 8.896335 1.061452
H -6.517446 7.216477 1.386617
C 8.366906 8.190291 0.677749
N 8.175825 7.835356 -0.723466
C 8.572998 6.627205 -1.296206
O 8.258061 6.360516 -2.479809
C 9.507722 5.673613 -0.537879
O 8.965936 4.902654 0.515511
C 9.977527 4.243155 1.176926
O 11.171305 4.509760 1.110227
C 9.497898 2.910787 1.718177
C 8.446192 2.768928 2.579342
C 8.114054 4.110746 3.184065
C 7.176250 4.963589 2.571779
C 6.924434 6.227729 3.107068
C 7.613844 6.658497 4.241709
C 8.555190 5.816461 4.844157
N 9.296001 6.286198 6.015808
O 9.043545 7.435425 6.422853
O 10.116117 5.512061 6.520574
C 8.825669 4.545551 4.320172
C 7.643790 8.869619 -1.626592
C 6.127316 9.081876 -1.481877
C 5.757544 10.224721 -2.430639
S 7.188845 11.299179 -2.486841
O 7.718366 11.335220 -3.816778
O 6.901493 12.508945 -1.720063
C 8.254087 10.272772 -1.486870
H 8.609492 7.316750 1.269981
H 7.451766 8.649980 1.060884
H 9.193235 8.897645 0.758807
H 9.877141 4.970678 -1.315983
H 10.408830 6.258044 -0.259085
H 6.640991 4.648663 1.674131
H 6.202075 6.880602 2.627805
H 7.403996 7.658359 4.641765
H 9.550511 3.878900 4.789471
H 7.828296 8.574871 -2.669308
H 5.885497 9.365121 -0.456561
H 5.571959 8.165632 -1.708148
H 5.579355 9.839918 -3.435157
H 4.881348 10.770367 -2.071370
H 8.212072 10.633959 -0.459130
H 9.283561 10.322343 -1.849838
C 6.698306 0.441041 -3.479007
N 6.471179 1.625054 -2.645382
C 5.960952 1.339619 -1.384219
O 5.810377 0.163936 -1.036570
C 5.556482 2.440902 -0.407366
O 5.739212 1.947062 0.942400
C 4.739905 1.165879 1.503065
O 3.586767 1.153756 1.147207
C 5.286908 0.589821 2.822608
C 4.748974 -0.510826 3.449166
C 5.581294 -1.259251 4.464231
C 5.782591 -2.630202 4.269596
C 6.532266 -3.387095 5.172130
C 7.075377 -2.774685 6.304918
C 6.846708 -1.431336 6.539019
N 7.387215 -0.780842 7.729785
O 8.045757 -1.479726 8.522775
O 7.150826 0.421129 7.864796
C 6.107524 -0.664632 5.621547
C 7.028040 2.907197 -3.147428
C 6.295829 3.399439 -4.393038
C 7.159762 4.477639 -5.026304
S 8.811202 3.817613 -4.937765
O 9.014338 2.955813 -6.073802
O 9.741494 4.875625 -4.542223
C 8.516752 2.782497 -3.515852
H 7.521656 -0.132970 -3.060359
H 5.797108 -0.182328 -3.470033
H 6.922153 0.707290 -4.511522
H 6.199967 3.314801 -0.484657
H 4.515993 2.740010 -0.583190
H 5.374290 -3.115001 3.386991
H 6.676380 -4.442475 4.959915
H 7.649388 -3.401227 6.994999
H 5.905789 0.372716 5.848555
H 6.937292 3.673244 -2.378395
H 5.289668 3.758090 -4.140629
H 6.161023 2.600175 -5.125459
H 7.086656 5.406287 -4.457863
H 6.886615 4.664836 -6.063802
H 8.798539 1.770051 -3.818416
H 9.150563 3.084047 -2.679667
C 4.012518 -7.204302 5.451063
N 2.572494 -6.913379 5.441407
C 2.215525 -5.776925 4.726827
O 3.065699 -4.896476 4.537174
C 0.784903 -5.601965 4.143824
O 0.327551 -4.245941 3.994793
C 1.107032 -3.460988 3.181804
O 1.958215 -3.839827 2.375803
C 1.047073 -2.064647 3.722321
C -0.132368 -1.419401 4.036055
C 0.041049 -0.312375 5.051496
C 0.549539 0.952292 4.727325
C 0.543880 1.967581 5.692708
C 0.008452 1.716048 6.962226
C -0.569299 0.472372 7.239479
N -1.354328 0.317682 8.443699
O -0.877755 0.784494 9.502373
O -2.497851 -0.117049 8.295946
C -0.557828 -0.551758 6.302470
C 1.783220 -7.704328 6.379424
C 1.048519 -6.883960 7.436952
C 0.445492 -7.912479 8.384198
S 0.023960 -9.329677 7.353413
O -1.414228 -9.349732 7.166621
O 0.797561 -10.465920 7.804829
C 0.775673 -8.717596 5.841418
H 4.613912 -6.376962 5.079090
H 4.359728 -7.435092 6.463469
H 4.168874 -8.065287 4.801266
H 0.066301 -6.067936 4.809526
H 0.752597 -6.133771 3.177065
H 0.938704 1.154069 3.724799
H 0.973518 2.939010 5.438861
H 0.023141 2.510162 7.713993
H -1.020482 -1.511868 6.546133
H 2.515501 -8.306368 6.933643
H 1.717643 -6.191249 7.951287
H 0.241883 -6.292184 6.990069
H 1.180214 -8.224402 9.131422
H -0.444575 -7.523097 8.877781
H 1.251884 -9.534434 5.289807
H -0.002458 -8.256638 5.222555
C -5.083920 -3.339812 9.392209
N -5.514952 -4.637260 8.848080
C -5.074264 -5.084233 7.582357
O -5.578093 -6.083472 7.051065
C -3.921390 -4.332057 6.934194
O -3.802452 -4.629229 5.555620
C -2.703328 -4.046519 5.008180
O -1.803964 -3.517892 5.672029
C -2.857676 -3.790649 3.510048
C -3.512358 -4.711246 2.674883
C -3.870685 -6.009816 3.303377
C -2.886096 -6.858113 3.810635
C -3.273271 -8.015700 4.498284
C -4.625905 -8.327915 4.655351
C -5.603253 -7.469770 4.132774
N -7.017320 -7.752842 4.299000
O -7.808149 -7.139920 3.546232
O -7.350611 -8.591980 5.140293
C -5.227983 -6.312459 3.454355
C -6.736812 -5.292927 9.402303
C -6.757276 -5.476701 10.920408
C -7.408290 -4.249507 11.553595
S -8.618388 -3.683845 10.359338
O -8.355903 -2.282789 10.097052
O -9.908371 -4.191147 10.771036
C -8.048534 -4.647499 8.970295
H -4.953468 -3.414364 10.472138
H -4.109031 -3.054792 9.002184
H -5.805019 -2.561586 9.130493
H -4.133483 -3.261572 7.002948
H -3.008479 -4.582500 7.503361
H -1.829804 -6.601235 3.723691
H -2.514436 -8.670995 4.923394
H -4.902601 -9.224229 5.232889
H -5.995330 -5.636982 3.065968
H -6.730624 -6.312658 8.983817
H -5.760917 -5.691730 11.339293
H -7.395184 -6.346649 11.159593
H -6.684918 -3.450337 11.752421
H -7.921512 -4.508158 12.489207
H -8.794889 -5.418481 8.774587
H -7.934688 -4.004226 8.096179
C -6.896779 -10.015482 -4.057085
N -5.491185 -9.726598 -3.799201
C -5.084951 -8.856711 -2.776779
O -3.898542 -8.743148 -2.442151
C -6.174080 -8.021800 -2.033219
O -5.663160 -6.940247 -1.224670
C -4.958318 -6.046979 -2.004637
O -4.794216 -6.152490 -3.226685
C -4.208968 -5.013979 -1.272939
C -3.920015 -3.801250 -1.871019
C -2.557821 -3.350303 -1.487203
C -2.326381 -2.542838 -0.358319
C -1.017326 -2.378072 0.077180
C 0.029261 -2.987498 -0.605541
C -0.190302 -3.673161 -1.795304
N 0.921382 -4.279403 -2.507693
O 0.717855 -4.676771 -3.671615
O 2.001649 -4.392516 -1.922347
C -1.488400 -3.862481 -2.247120
C -4.452281 -10.291437 -4.661941
C -4.543780 -9.770589 -6.081767
C -3.525324 -10.549727 -6.879576
S -3.610429 -12.238484 -6.252541
O -2.266264 -12.681724 -5.925158
O -4.547216 -12.979117 -7.085501
C -4.456914 -11.819373 -4.723215
H -7.017870 -10.747171 -4.870764
H -7.414298 -9.081762 -4.334750
H -7.316922 -10.427228 -3.126588
H -6.707404 -8.718356 -1.372140
H -6.903692 -7.619753 -2.760878
H -3.151085 -2.129677 0.216160
H -0.795564 -1.798199 0.975468
H 1.022851 -2.922154 -0.176503
H -1.713532 -4.454535 -3.138738
H -3.464155 -10.005043 -4.274170
H -5.536966 -9.937165 -6.497845
H -4.346845 -8.701907 -6.127105
H -2.512698 -10.179475 -6.697694
H -3.727896 -10.543713 -7.952703
H -3.919402 -12.275730 -3.877214
H -5.471223 -12.250039 -4.751937
C -11.626205 -3.203654 -2.984329
N -10.890544 -2.852861 -4.197756
C -9.600713 -2.348758 -3.949889
O -9.228996 -2.110108 -2.808688
C -8.668782 -2.102289 -5.139662
O -7.351024 -2.002450 -4.602291
C -6.471505 -1.605975 -5.545813
O -6.758802 -1.445695 -6.727533
C -5.086126 -1.463963 -4.928342
C -4.330369 -0.346639 -5.278315
C -4.947281 0.552646 -6.290190
C -4.520058 0.395241 -7.627111
C -5.101306 1.145417 -8.642813
C -6.141959 2.025321 -8.348136
C -6.596454 2.150715 -7.024961
N -7.717504 3.050123 -6.749752
O -8.273133 2.950881 -5.631612
O -8.046012 3.834506 -7.637841
C -5.988291 1.448734 -5.979629
C -11.642452 -2.574438 -5.444787
C -12.265279 -3.820190 -6.077815
C -13.684003 -4.010686 -5.569854
S -14.274488 -2.403452 -5.021854
O -15.241851 -1.920562 -5.998259
O -14.521465 -2.478175 -3.603057
C -12.737410 -1.512177 -5.286858
H -10.934325 -3.559080 -2.215476
H -12.326260 -4.008657 -3.173137
H -12.132562 -2.316275 -2.585370
H -8.941428 -1.154989 -5.637913
H -8.709711 -2.955673 -5.832427
H -3.737093 -0.316505 -7.881632
H -4.757187 1.020258 -9.658299
H -6.604346 2.589411 -9.160453
H -6.329771 1.552925 -4.947140
H -10.920462 -2.182225 -6.174594
H -12.308063 -3.673872 -7.166704
H -11.650124 -4.716932 -5.899845
H -13.724934 -4.705691 -4.726479
H -14.344393 -4.387310 -6.364227
H -12.841401 -0.929570 -6.209017
H -12.543474 -0.830904 -4.447094
C -3.054670 7.709404 -7.099610
N -3.653062 7.385871 -5.797696
C -4.459327 6.257850 -5.577133
O -5.230664 6.186338 -4.610197
C -4.316449 5.024108 -6.515827
O -4.120190 3.739802 -5.886321
C -3.022620 3.769756 -5.061907
O -2.298726 4.761902 -4.919424
C -2.636546 2.430573 -4.448424
C -1.915191 2.702900 -3.289513
C -0.687402 1.892584 -3.100777
C -0.560880 0.929147 -2.098596
C 0.671040 0.294918 -1.918424
C 1.782059 0.591401 -2.724617
C 1.670702 1.591746 -3.686073
N 2.809914 1.977895 -4.509758
O 3.798405 1.218919 -4.505019
O 2.734643 3.042457 -5.116467
C 0.451214 2.232638 -3.867820
C -3.607874 8.415041 -4.743515
C -4.377956 9.683706 -5.115203
C -4.038395 10.701160 -4.035323
S -2.288760 10.498602 -3.733863
O -1.554274 11.330319 -4.679949
O -2.051220 10.487580 -2.310232
C -2.183606 8.826956 -4.354313
H -1.995266 7.945258 -6.970585
H -3.140897 6.900896 -7.816126
H -3.587282 8.564577 -7.520892
H -5.246254 4.985723 -7.093128
H -3.502361 5.155393 -7.222267
H -1.410523 0.694399 -1.444926
H 0.764720 -0.441405 -1.114500
H 2.715544 0.074949 -2.550099
H 0.369112 3.040289 -4.618088
H -4.073258 8.026399 -3.828375
H -4.054816 10.077006 -6.079485
H -5.459276 9.501822 -5.184446
H -4.577169 10.456116 -3.119935
H -4.268742 11.721609 -4.341476
H -1.495747 8.825404 -5.195010
H -1.780715 8.171507 -3.574283
C 0.297899 6.794438 5.521300
N -1.012312 6.211748 5.258695
C -1.360604 5.676813 4.006378
O -2.528131 5.463358 3.694567
C -0.229134 5.342753 3.006133
O -0.532923 5.694514 1.657737
C -1.110478 4.798534 0.785540
O -1.434133 3.635809 1.009616
C -1.234956 5.542047 -0.573642
C -0.698238 6.744814 -0.508390
C 0.207954 7.771071 -0.079220
C 1.469171 7.868370 -0.660637
C 2.443512 8.671264 -0.103293
C 2.217330 9.315937 1.096366
C 0.959872 9.177925 1.706923
N 0.745467 9.785817 3.017141
O 1.614093 10.563373 3.460009
O -0.269297 9.450890 3.637865
C -0.046145 8.423350 1.119587
C -1.966985 6.085293 6.362243
C -1.467837 5.111204 7.424390
C -0.700679 5.880700 8.497084
S -1.515733 7.462555 8.625981
O -2.509535 7.356830 9.676547
O -0.508631 8.505819 8.560124
C -2.362694 7.394599 7.047922
H 0.731773 7.230235 4.623535
H 0.946909 6.026240 5.938268
H 0.190283 7.617812 6.226804
H 0.070753 4.287027 3.116762
H 0.660726 5.921039 3.211119
H 1.692252 7.295755 -1.546664
H 3.395411 8.747796 -0.618584
H 3.019185 9.900053 1.552622
H -1.032735 8.304852 1.592392
H -2.891104 5.642927 5.948095
H -0.825040 4.341118 6.976061
H -2.326931 4.618634 7.906736
H 0.352689 6.028918 8.231899
H -0.749907 5.365685 9.464188
H -2.142784 8.281543 6.432748
H -3.455275 7.379963 7.270014
