448
Molecule ID: homopoly_11211
O 11.306787 1.167382 -1.408216
C 10.364555 1.942767 -1.507906
O 10.369962 3.085569 -2.243394
C 11.196234 2.984762 -3.416631
C 10.573704 1.996792 -4.409242
F 10.544605 0.745361 -3.882088
F 9.272244 2.351329 -4.591595
C 11.330598 1.989817 -5.726029
F 12.629120 1.644070 -5.484387
F 11.376128 3.236872 -6.260314
C 10.680499 1.006719 -6.685336
F 10.697554 -0.236059 -6.109574
F 9.360731 1.320206 -6.842675
C 11.292648 0.916218 -8.081433
F 10.631361 -0.060592 -8.765100
F 11.044658 2.074656 -8.767570
C 12.772202 0.638893 -8.065675
F 13.067142 -0.372726 -7.208956
F 13.410436 1.751276 -7.594252
C 13.274063 0.305904 -9.460258
F 13.029280 1.310255 -10.339676
F 14.615085 0.094450 -9.458342
F 12.710282 -0.820789 -9.967689
C 9.048625 1.675818 -1.087221
C 7.907107 1.656172 -0.427073
H 12.216531 2.732632 -3.121946
H 11.174899 4.003598 -3.825298
H 6.973680 1.573633 -0.971062
O 4.007671 3.498688 -0.549178
C 5.095944 3.440030 0.020250
O 6.117095 4.298639 -0.261413
C 5.724540 5.214586 -1.288284
C 6.829376 6.171798 -1.737446
F 7.857195 5.448899 -2.253481
F 7.307424 6.851298 -0.680818
C 6.222540 7.106868 -2.785212
F 5.206290 7.812244 -2.201946
F 5.627295 6.369110 -3.773317
C 7.223653 8.056113 -3.390611
F 8.353334 7.368271 -3.744157
F 7.631081 8.978291 -2.474136
C 6.700626 8.753249 -4.649368
F 7.703227 9.546995 -5.139026
F 6.479986 7.816324 -5.614256
C 5.453491 9.586094 -4.444290
F 5.651890 10.512185 -3.458428
F 4.419198 8.802567 -4.015385
C 5.067413 10.256436 -5.769419
F 3.954217 11.014954 -5.623595
F 6.042187 11.065206 -6.244082
F 4.797586 9.343077 -6.736273
C 5.420150 2.513679 1.159594
C 4.408683 2.054347 1.936743
H 4.879316 5.798639 -0.907367
H 5.409038 4.631244 -2.152545
H 4.620622 1.412566 2.793506
O -1.050030 3.286722 -0.193081
C 0.098070 3.225028 0.241307
O 0.824183 4.332142 0.552174
C 0.114761 5.580068 0.482098
C -0.425425 6.123610 1.812587
F -0.992827 7.342110 1.543803
F 0.658956 6.432283 2.576592
C -1.428862 5.280942 2.597762
F -1.081290 3.966338 2.649012
F -2.633398 5.291132 1.962637
C -1.538550 5.840222 4.020321
F -0.342055 5.755320 4.671664
F -1.834029 7.176415 3.980758
C -2.597340 5.159116 4.851251
F -3.836605 5.539399 4.421274
F -2.546819 3.809991 4.645835
C -2.465728 5.421028 6.347690
F -1.322035 4.850820 6.820491
F -3.494143 4.772390 6.987539
C -2.471038 6.894262 6.736096
F -3.555488 7.548897 6.281098
F -2.460068 7.021642 8.091958
F -1.384040 7.548820 6.292695
C 0.820021 1.922141 0.536241
C 0.064678 0.833551 0.225475
H 0.875285 6.291678 0.157661
H -0.643808 5.584672 -0.306798
H -0.817329 0.995772 -0.368785
O -3.877780 -1.203814 -0.096772
C -3.114589 -1.931268 -0.726927
O -3.507698 -2.781154 -1.690692
C -4.934605 -2.929502 -1.896799
C -5.578179 -1.911201 -2.861551
F -4.965050 -1.937377 -4.070093
F -5.438687 -0.635931 -2.417201
C -7.071712 -2.271426 -2.991062
F -7.728084 -1.937602 -1.837075
F -7.200756 -3.642004 -3.061203
C -7.779169 -1.711879 -4.197126
F -9.099348 -2.088149 -4.099514
F -7.310826 -2.340323 -5.314340
C -7.710783 -0.218679 -4.417925
F -6.419818 0.158274 -4.619334
F -8.130673 0.452081 -3.309624
C -8.562180 0.141577 -5.629989
F -8.180500 -0.594392 -6.719196
F -9.872843 -0.182751 -5.412517
C -8.437615 1.616048 -5.945528
F -8.777250 2.413457 -4.896178
F -7.172955 1.948522 -6.299401
F -9.245356 1.966415 -6.983723
C -1.628234 -1.940827 -0.519845
C -0.762954 -2.794401 -1.093915
H -5.441476 -2.923203 -0.934581
H -5.054458 -3.932133 -2.313721
H 0.264924 -2.713032 -0.753216
O 1.491065 -3.618713 0.714126
C 1.674405 -4.693808 0.161183
O 2.777249 -4.945996 -0.598804
C 2.730273 -4.157735 -1.832132
C 4.048868 -3.949691 -2.616014
F 4.475902 -5.210995 -2.925957
F 5.014698 -3.395604 -1.858556
C 3.767162 -3.168076 -3.899229
F 4.498642 -3.662116 -4.936388
F 2.462988 -3.389623 -4.263302
C 4.049936 -1.672938 -3.727458
F 5.397046 -1.446603 -3.631822
F 3.520090 -1.205867 -2.563937
C 3.448181 -0.914595 -4.909319
F 3.705027 -1.597798 -6.065962
F 2.080521 -0.921212 -4.790860
C 3.917528 0.507232 -5.108143
F 3.258670 1.008698 -6.197007
F 5.240262 0.499987 -5.451014
C 3.688342 1.402789 -3.899330
F 4.421357 0.996426 -2.831051
F 4.049552 2.685774 -4.154844
F 2.394852 1.409841 -3.508170
C 0.410498 -5.456587 -0.199926
C -0.311159 -5.926629 0.842573
H 2.220358 -3.205201 -1.667041
H 2.157661 -4.834370 -2.528591
H 0.124390 -5.937067 1.838271
O -5.023608 -6.759057 1.981042
C -4.974803 -5.565503 1.723155
O -6.067321 -4.833725 1.331037
C -7.313497 -5.562720 1.221274
C -8.504152 -4.644111 1.527275
F -8.507065 -3.612903 0.641429
F -8.342557 -4.082734 2.757259
C -9.834701 -5.412189 1.467567
F -10.038672 -5.844439 0.193866
F -9.715424 -6.546986 2.218881
C -11.032938 -4.628404 1.995002
F -12.131117 -5.441224 1.942160
F -10.856481 -4.353800 3.311565
C -11.323655 -3.338773 1.248203
F -10.316285 -2.444674 1.437585
F -11.325275 -3.613739 -0.088209
C -12.641502 -2.666572 1.590032
F -13.680003 -3.525659 1.366697
F -12.830797 -1.631405 0.713587
C -12.709700 -2.123305 3.014565
F -12.672876 -3.101868 3.933942
F -11.690116 -1.274832 3.275836
F -13.861325 -1.436594 3.224720
C -3.797669 -4.692787 1.882207
C -3.900835 -3.488703 2.527146
H -7.317835 -6.413648 1.916137
H -7.360494 -5.924408 0.191453
H -2.986542 -2.887287 2.587529
O -2.451477 -1.723456 4.588111
C -2.821606 -0.632630 4.148446
O -2.349967 0.571968 4.592619
C -1.558305 0.482785 5.777692
C -0.331076 1.383669 5.781789
F 0.258371 1.421038 4.569685
F -0.726118 2.655394 6.042347
C 0.647312 0.889450 6.831129
F 1.016281 -0.397706 6.548215
F 0.004728 0.812282 8.037223
C 1.891404 1.766407 6.928632
F 2.535976 1.853307 5.729053
F 1.569380 3.040898 7.272308
C 2.845760 1.165269 7.953168
F 2.153208 0.934520 9.115101
F 3.270460 -0.063152 7.532544
C 4.041752 2.016250 8.313578
F 4.737283 1.352723 9.293190
F 3.613899 3.178314 8.893670
C 4.979934 2.312745 7.156016
F 4.401562 3.081559 6.204471
F 6.079156 2.981491 7.577158
F 5.414154 1.186914 6.542572
C -3.969513 -0.476918 3.190450
C -3.889223 0.624038 2.374850
H -1.257743 -0.547561 6.002304
H -2.224694 0.793020 6.592112
H -2.953463 1.156629 2.415170
O -5.521120 4.324236 0.227727
C -4.966242 3.925881 -0.791096
O -4.666735 4.759260 -1.856003
C -4.773964 6.182777 -1.634033
C -5.598365 7.015146 -2.651050
F -6.727070 6.353502 -3.019920
F -6.029642 8.107864 -1.943064
C -4.845451 7.588839 -3.867944
F -3.724361 8.214068 -3.369995
F -5.588542 8.596556 -4.429349
C -4.378095 6.679316 -4.969270
F -3.660038 5.689634 -4.378528
F -3.481465 7.372305 -5.731575
C -5.387276 6.068672 -5.924998
F -4.743446 5.213974 -6.762149
F -6.274214 5.284641 -5.243339
C -6.114144 7.129294 -6.748858
F -5.277290 8.093938 -7.215119
F -7.022089 7.784143 -5.973963
C -6.816957 6.441695 -7.930493
F -7.514672 7.334131 -8.682018
F -7.691612 5.492589 -7.527300
F -5.938939 5.830986 -8.782550
C -4.391394 2.540257 -0.945054
C -3.935717 2.010155 -2.109579
H -5.200460 6.385316 -0.637981
H -3.756568 6.563897 -1.592487
H -3.396850 1.063230 -2.060226
O 10.158347 2.640644 1.390714
C 9.160435 2.057962 1.789221
O 9.072444 1.438582 3.019159
C 10.329730 1.455623 3.740832
C 11.324183 0.398652 3.254269
F 11.404791 0.460483 1.895535
F 12.555661 0.726395 3.698899
C 10.979768 -1.035301 3.610081
F 9.686612 -1.310919 3.258676
F 11.743636 -1.869394 2.837238
C 11.229893 -1.343944 5.080202
F 12.518732 -1.051990 5.407007
F 10.463014 -0.551781 5.874815
C 10.920101 -2.802561 5.340384
F 11.572887 -3.605533 4.455412
F 9.593535 -3.037718 5.145343
C 11.314890 -3.195359 6.750964
F 12.653750 -3.025066 6.955135
F 10.697569 -2.404336 7.675016
C 10.939518 -4.658437 6.956364
F 9.596103 -4.856107 6.873660
F 11.531219 -5.484362 6.054252
F 11.318275 -5.080961 8.186713
C 7.894517 1.954497 1.003014
C 6.762523 2.267943 1.664646
H 10.773156 2.454683 3.681073
H 10.092798 1.331331 4.795899
H 6.805853 2.446436 2.747156
O 1.460746 3.825526 3.082291
C 2.598916 3.624283 2.690992
O 3.684615 4.404388 2.988460
C 3.349078 5.469532 3.891769
C 4.507146 6.298037 4.419850
F 3.998463 7.072359 5.418807
F 5.411800 5.466223 5.016581
C 5.191633 7.176893 3.364945
F 5.741746 6.388564 2.398638
F 4.253763 7.934671 2.725449
C 6.231341 8.071142 4.041994
F 7.150556 7.320789 4.711458
F 5.625890 8.847633 4.979173
C 6.911045 8.953982 3.021022
F 5.989194 9.713607 2.360704
F 7.474677 8.145167 2.070904
C 8.015529 9.848421 3.565878
F 8.933149 9.098321 4.259607
F 8.699246 10.385150 2.506260
C 7.497564 10.990546 4.436301
F 8.513367 11.802881 4.849953
F 6.613665 11.768199 3.768277
F 6.883000 10.563294 5.565209
C 3.010569 2.473895 1.833600
C 2.197120 1.770667 1.005058
H 2.667424 6.133068 3.374282
H 2.830767 5.041586 4.756885
H 2.676822 0.914135 0.515475
O 0.297992 -0.538354 3.104291
C 0.860299 -0.786626 2.049217
O 2.085554 -1.375364 1.927533
C 2.515742 -2.065029 3.116270
C 3.923777 -1.781437 3.547399
F 4.155948 -2.467048 4.702574
F 3.942617 -0.454223 3.921283
C 5.073430 -2.022210 2.553431
F 4.859154 -1.339141 1.388088
F 6.185952 -1.447037 3.092124
C 5.295386 -3.506268 2.273082
F 5.171386 -4.242589 3.413354
F 4.317074 -3.962019 1.454354
C 6.682437 -3.735952 1.686041
F 7.609169 -3.248493 2.577614
F 6.847147 -2.999117 0.558641
C 7.036714 -5.195880 1.468545
F 6.731376 -5.948273 2.578370
F 8.407155 -5.281814 1.342608
C 6.410285 -5.828845 0.238098
F 6.668004 -5.108291 -0.871446
F 6.889649 -7.079252 0.028197
F 5.068631 -5.937248 0.357697
C 0.143778 -0.580249 0.729686
C -1.052262 -1.213605 0.691667
H 1.872989 -1.823196 3.953273
H 2.413054 -3.136209 2.951332
H -1.383812 -1.737495 1.582297
O -1.649451 -2.811067 -3.860936
C -1.308697 -3.866176 -3.334337
O -1.369338 -5.092095 -3.948029
C -2.006562 -5.130055 -5.221079
C -3.533126 -5.212504 -5.111767
F -3.969343 -4.017138 -4.616481
F -4.043087 -5.308505 -6.357527
C -4.106188 -6.297002 -4.201842
F -5.443546 -6.066892 -4.021863
F -3.548453 -6.119047 -2.964840
C -3.866390 -7.720062 -4.648779
F -3.919543 -8.527617 -3.547842
F -2.594602 -7.848242 -5.107249
C -4.888090 -8.232374 -5.646646
F -4.895866 -7.479450 -6.775289
F -6.139753 -8.069491 -5.106381
C -4.722535 -9.719963 -5.960109
F -5.904184 -10.182661 -6.487094
F -4.526444 -10.452848 -4.820893
C -3.596069 -9.987563 -6.952331
F -3.576723 -11.295123 -7.334359
F -2.374113 -9.710259 -6.437999
F -3.720190 -9.239610 -8.074648
C -0.809806 -3.974382 -1.937476
C -0.237921 -5.153505 -1.508008
H -1.706870 -4.262656 -5.815008
H -1.596514 -5.987543 -5.753987
H -0.238548 -6.029099 -2.161657
O -3.586283 -7.464820 -0.091423
C -2.395742 -7.160838 0.005454
O -1.496150 -7.688282 -0.859392
C -1.291367 -9.099629 -0.725160
C -0.021006 -9.526944 -1.451847
F 0.994731 -8.737144 -1.000345
F 0.280319 -10.796750 -1.059753
C -0.098243 -9.451898 -2.976715
F -1.069169 -10.319084 -3.390126
F -0.492394 -8.223117 -3.415916
C 1.263895 -9.793495 -3.578384
F 1.690372 -10.980554 -3.060418
F 2.198419 -8.880052 -3.180338
C 1.199658 -9.908143 -5.102597
F 2.068869 -10.882668 -5.514305
F -0.020025 -10.338660 -5.513925
C 1.607028 -8.618634 -5.779016
F 0.993163 -7.528408 -5.214505
F 2.946878 -8.419511 -5.599167
C 1.252230 -8.705453 -7.258875
F -0.086413 -8.513063 -7.430334
F 1.559892 -9.899252 -7.828435
F 1.886975 -7.739048 -7.977574
C -1.800650 -6.104485 0.845951
C -2.424027 -5.129849 1.553323
H -1.160131 -9.327658 0.342220
H -2.162001 -9.634860 -1.120290
H -1.726947 -4.462939 2.050044
O -6.748165 -3.037857 4.967641
C -5.909185 -3.540813 4.228811
O -5.554048 -4.838832 4.217341
C -6.118352 -5.834308 5.088554
C -5.100947 -6.349810 6.104416
F -5.419981 -5.855399 7.337321
F -5.275901 -7.704138 6.216393
C -3.640070 -6.012212 5.740735
F -3.441541 -6.052542 4.377433
F -3.367823 -4.717822 6.090882
C -2.608125 -6.932207 6.376419
F -2.897634 -7.223576 7.666717
F -1.392021 -6.287424 6.391722
C -2.444784 -8.160026 5.494108
F -1.810725 -7.770779 4.334655
F -3.626475 -8.688236 5.086650
C -1.631791 -9.221613 6.191250
F -2.376009 -9.858233 7.140545
F -0.564368 -8.677939 6.849541
C -1.143217 -10.178016 5.108201
F -0.578452 -11.290267 5.652047
F -0.181054 -9.583795 4.349263
F -2.114413 -10.589947 4.252760
C -4.990221 -2.803301 3.256924
C -5.045321 -1.444694 3.388090
H -7.066341 -5.530003 5.548089
H -6.347612 -6.678513 4.430150
H -5.831034 -1.033407 4.006214
O -6.996047 1.543472 0.522153
C -6.211851 1.366124 1.448190
O -6.615170 1.275474 2.764239
C -8.028224 1.268230 2.926800
C -8.489191 1.245491 4.387170
F -7.911923 0.169046 5.010645
F -9.833878 0.962317 4.369848
C -8.259670 2.493942 5.241111
F -8.942580 2.349569 6.412298
F -6.947697 2.595489 5.588606
C -8.667892 3.759399 4.530581
F -7.736816 4.037275 3.575456
F -9.845778 3.597086 3.849765
C -8.823710 4.909637 5.521050
F -10.022159 4.770987 6.154679
F -7.882691 4.862516 6.503122
C -8.709587 6.226605 4.794833
F -9.375356 6.200623 3.606088
F -7.394954 6.453341 4.488903
C -9.250958 7.364554 5.638460
F -9.156978 8.538505 4.951395
F -8.565944 7.527458 6.796577
F -10.559216 7.195194 5.943603
C -4.737787 1.254412 1.349052
C -4.049644 1.786816 0.295248
H -8.441045 0.378495 2.432949
H -8.447566 2.130363 2.411052
H -2.982825 1.620397 0.300447
O -2.880375 3.509602 -5.300762
C -2.960150 2.603078 -4.470560
O -2.347464 1.383474 -4.643681
C -2.564895 0.929744 -5.991846
C -1.374487 0.156772 -6.553608
F -0.929775 -0.761251 -5.662479
F -0.335332 1.022361 -6.743248
C -1.774903 -0.527823 -7.864437
F -2.483045 0.359216 -8.636103
F -2.664719 -1.532682 -7.620727
C -0.628102 -1.018840 -8.722302
F -1.115453 -1.309569 -9.972056
F 0.281207 -0.025536 -8.931169
C 0.096253 -2.243959 -8.189570
F 0.755779 -1.945671 -7.041066
F -0.796168 -3.223997 -7.856344
C 1.018489 -2.802857 -9.261037
F 0.247915 -3.357025 -10.252265
F 1.747268 -1.820336 -9.864718
C 1.937094 -3.841230 -8.652357
F 2.599115 -4.533311 -9.612636
F 2.876800 -3.264096 -7.865044
F 1.284130 -4.750114 -7.885421
C -4.055123 2.525101 -3.470170
C -5.221741 2.722838 -4.002161
H -3.472023 0.318904 -5.944044
H -2.784616 1.766778 -6.674038
H -6.076035 3.001826 -4.563477
