624
Molecule ID: homopoly_14158117
O -11.235996 -0.101364 -5.406363
C -10.554890 0.476063 -4.576961
O -10.906477 1.146172 -3.460832
C -12.132420 1.874356 -3.710716
O -13.124276 1.408997 -2.722499
C -13.319335 2.211019 -1.517212
C -14.823968 2.535114 -1.407643
O -15.204361 3.264850 -0.228946
C -12.463090 3.474647 -1.377717
O -12.926704 4.288510 -0.294508
C -12.506580 4.220068 -2.700384
O -11.814309 5.462516 -2.610182
C -11.782006 3.379686 -3.737345
O -12.055335 3.917535 -5.037325
C -9.202641 0.641872 -4.948797
C -8.290738 0.491319 -5.875392
C -8.910503 0.888189 -7.155387
C -9.315753 -0.081065 -8.086329
C -9.864575 0.321214 -9.320235
C -10.035268 1.685168 -9.598129
O -10.565857 1.991084 -10.785377
C -9.673943 2.631376 -8.656163
C -9.106266 2.254054 -7.452195
H -12.643280 1.618896 -4.682384
H -13.087955 1.584123 -0.675526
H -15.172134 3.121486 -2.304762
H -15.389229 1.599111 -1.359218
H -14.798943 2.767672 0.530169
H -11.432809 3.176386 -1.133853
H -12.461469 5.156404 -0.303922
H -13.545160 4.434565 -3.022893
H -12.451454 6.095532 -2.240055
H -10.709546 3.451053 -3.562927
H -11.834513 4.859913 -4.944170
H -9.151125 -1.140237 -7.837924
H -10.150592 -0.466468 -10.020134
H -10.815202 2.934217 -10.810586
H -9.802427 3.677416 -8.861612
H -8.804461 3.022848 -6.728392
O -3.648638 0.688068 -5.765254
C -4.526530 0.360426 -4.847273
O -4.602690 1.147188 -3.772594
C -4.461623 2.510842 -4.178799
O -4.777419 3.410955 -3.089274
C -5.326270 4.696921 -3.403056
C -5.054916 5.637455 -2.245288
O -5.752266 6.909574 -2.462223
C -4.796765 5.207940 -4.731817
O -5.188527 6.538911 -5.077897
C -5.473352 4.314865 -5.759233
O -4.861954 4.522619 -7.047720
C -5.460756 2.864031 -5.327638
O -6.736938 2.502844 -4.739193
C -5.042962 -1.016432 -4.642245
C -4.117172 -1.955282 -4.303955
C -2.783308 -1.608918 -4.974917
C -2.651852 -1.784053 -6.360469
C -1.526937 -1.332449 -7.053287
C -0.528059 -0.671098 -6.349872
O 0.607010 -0.208718 -6.964436
C -0.689848 -0.417539 -4.978915
C -1.813520 -0.902505 -4.269096
H -3.404585 2.743091 -4.492723
H -6.434795 4.640159 -3.460360
H -5.475864 5.270129 -1.312387
H -3.964680 5.736970 -2.127935
H -5.267415 7.607963 -1.961382
H -3.697470 5.132255 -4.785185
H -6.170168 6.506773 -5.238262
H -6.517175 4.623950 -5.861887
H -5.240893 5.377129 -7.347866
H -5.330300 2.251426 -6.209919
H -7.427766 3.166848 -4.967610
H -3.396099 -2.325582 -6.913701
H -1.426059 -1.555033 -8.078820
H 0.608851 -0.461918 -7.906841
H 0.071301 0.110903 -4.404228
H -1.941175 -0.661059 -3.189918
O -4.731730 -6.314299 -3.565249
C -3.580111 -6.582089 -3.213019
O -2.951240 -7.778824 -3.445648
C -3.917715 -8.634008 -4.025097
O -4.550967 -9.518615 -3.064525
C -5.783890 -9.930337 -3.636294
C -6.607306 -10.692869 -2.616338
O -7.887637 -11.017832 -3.198095
C -5.535841 -10.816248 -4.876163
O -6.769751 -11.015009 -5.593646
C -4.493123 -10.210030 -5.862959
O -5.159909 -9.252140 -6.700467
C -3.343579 -9.530057 -5.145520
O -2.436802 -10.560524 -4.656668
C -2.669254 -5.475707 -2.707968
C -1.587092 -5.724867 -1.921703
C -1.251937 -7.166366 -1.671260
C 0.022958 -7.593395 -2.000024
C 0.421423 -8.892049 -1.642841
C -0.460560 -9.750130 -1.023849
O -0.074704 -10.985913 -0.630266
C -1.752976 -9.348978 -0.752425
C -2.155215 -8.045799 -1.043663
H -4.708663 -8.072304 -4.580640
H -6.363333 -9.040397 -3.955069
H -6.760918 -10.090571 -1.737013
H -6.097201 -11.611342 -2.336974
H -8.569877 -10.793027 -2.532251
H -5.135051 -11.782557 -4.556641
H -7.472267 -10.636763 -5.011826
H -4.125318 -11.017314 -6.511131
H -5.810830 -9.777866 -7.211893
H -2.785098 -8.894779 -5.831129
H -2.995541 -11.276614 -4.281852
H 0.740138 -6.906614 -2.456680
H 1.427414 -9.171746 -1.857240
H 0.840191 -11.139957 -0.950377
H -2.477226 -9.994109 -0.283775
H -3.184860 -7.752539 -0.836431
O 2.924318 -4.322957 1.551706
C 2.017161 -4.836403 0.883128
O 2.186438 -5.820375 -0.093552
C 3.499197 -6.463310 0.046609
O 3.301784 -7.887733 -0.051993
C 4.483039 -8.755184 0.073742
C 4.336226 -9.893010 -0.924830
O 3.197722 -10.708701 -0.610660
C 5.878406 -8.131813 -0.114457
O 6.712941 -8.492908 0.997533
C 5.919148 -6.607291 -0.283662
O 7.051300 -6.266172 -1.136265
C 4.686191 -6.088257 -0.955276
O 4.595741 -6.776545 -2.261822
C 0.600565 -4.385306 1.092814
C 0.282187 -3.542369 2.141551
C -1.181198 -3.244267 2.305814
C -1.737955 -3.670399 3.497376
C -3.062238 -3.411640 3.813925
C -3.847062 -2.698026 2.935521
O -5.117873 -2.428356 3.236451
C -3.287270 -2.250658 1.714582
C -1.942306 -2.483579 1.401330
H 3.931466 -6.235827 1.034029
H 4.392670 -9.144395 1.078274
H 5.227787 -10.515794 -0.862500
H 4.224084 -9.545884 -1.957646
H 3.044890 -11.234974 -1.420166
H 6.356267 -8.596792 -0.984717
H 6.273068 -8.182293 1.809093
H 6.062213 -6.128393 0.683600
H 7.795450 -6.074578 -0.519764
H 4.763795 -5.009542 -1.118640
H 5.513788 -6.661126 -2.593010
H -1.118473 -4.179967 4.220660
H -3.424400 -3.782396 4.745577
H -5.417605 -3.027074 3.945398
H -3.907448 -1.726695 0.995312
H -1.523774 -2.135094 0.431801
O 2.757574 -3.773812 7.695994
C 3.120684 -3.889852 6.493174
O 3.704979 -4.934505 5.957809
C 4.160118 -5.855944 6.923496
O 5.536310 -5.553438 7.144002
C 6.153183 -6.286817 8.209388
C 6.119204 -5.510369 9.542166
O 4.793874 -5.424183 10.093306
C 5.494800 -7.671890 8.381357
O 4.283153 -7.601991 9.115106
C 5.065670 -8.263116 7.035378
O 6.186471 -8.535411 6.177578
C 4.058826 -7.324993 6.322664
O 4.411683 -7.296257 4.901471
C 2.797627 -2.806463 5.457228
C 3.400985 -1.621812 5.807016
C 3.721524 -1.449970 7.283877
C 4.862068 -2.032122 7.909959
C 5.116517 -1.781989 9.243729
C 4.282860 -0.981620 9.977691
O 4.450147 -0.706172 11.291491
C 3.129158 -0.463119 9.364927
C 2.843800 -0.713870 8.050544
H 3.549937 -5.810942 7.873604
H 7.193690 -6.388942 7.869637
H 6.392329 -4.491492 9.366723
H 6.770305 -6.057918 10.237498
H 4.857946 -5.009363 10.987815
H 6.197981 -8.330400 8.860475
H 4.444221 -7.183050 9.995849
H 4.549631 -9.211397 7.217092
H 6.770549 -7.751535 6.244289
H 3.050534 -7.779687 6.441940
H 4.762431 -8.174371 4.712586
H 5.507990 -2.740255 7.344735
H 6.008848 -2.210741 9.653394
H 5.361313 -0.853823 11.605847
H 2.455451 0.172169 9.939311
H 1.966388 -0.269465 7.570692
O 7.278947 0.750785 3.320620
C 6.026936 0.610852 3.247181
O 5.382161 -0.515126 2.723660
C 6.398513 -1.366554 2.176560
O 6.583267 -1.108102 0.784530
C 7.950206 -1.468829 0.514719
C 8.298225 -1.338591 -0.949746
O 9.738239 -1.535089 -1.011728
C 8.328188 -2.967556 0.915350
O 9.690735 -2.995123 1.331412
C 7.409487 -3.666489 1.946710
O 8.118157 -3.842952 3.205242
C 6.110160 -2.927787 2.197867
O 5.221584 -3.266959 1.111801
C 5.021116 1.616081 4.046280
C 5.375266 2.913066 4.240504
C 6.779480 3.452064 4.695269
C 7.963576 3.412258 3.966482
C 9.060033 4.209970 4.328757
C 8.993748 5.069249 5.407973
O 9.989310 5.869924 5.830208
C 7.847014 5.079860 6.162908
C 6.736535 4.315583 5.801500
H 7.338157 -1.241550 2.705415
H 8.604254 -0.791580 1.083883
H 8.043819 -0.360714 -1.343384
H 7.826602 -2.117850 -1.550869
H 10.040207 -0.917902 -1.700510
H 8.253786 -3.550598 -0.005718
H 10.110491 -2.218401 0.896443
H 7.213353 -4.654240 1.519358
H 7.723553 -4.657896 3.575751
H 5.675312 -3.251128 3.154779
H 4.780394 -2.429252 0.853985
H 8.041134 2.812270 3.058613
H 9.945092 4.135681 3.723336
H 10.616040 6.122426 5.108928
H 7.750795 5.735064 7.025806
H 5.829528 4.418935 6.387982
O 5.942022 6.940669 3.296999
C 5.479789 6.900929 2.154910
O 5.981631 7.624660 1.111399
C 6.850274 8.665411 1.523890
O 6.654994 9.795353 0.599746
C 7.825622 10.416536 0.013344
C 8.322043 9.805630 -1.305518
O 8.510993 8.386054 -1.240390
C 9.030676 10.552254 0.972403
O 8.974165 11.853698 1.611925
C 9.087171 9.530070 2.093799
O 10.462041 9.164697 2.348110
C 8.322220 8.268067 1.790199
O 8.382287 7.482515 2.994612
C 4.456894 5.802936 1.789499
C 3.606263 5.983750 0.758259
C 3.940903 7.044400 -0.206121
C 4.823245 6.645967 -1.200976
C 5.233235 7.549387 -2.162142
C 4.764252 8.870876 -2.118350
O 5.224381 9.764642 -2.992632
C 3.937667 9.270008 -1.059364
C 3.541089 8.371742 -0.077914
H 6.495003 9.065943 2.464967
H 7.483000 11.391348 -0.227030
H 9.225289 10.271778 -1.565612
H 7.586226 10.051528 -2.108495
H 9.081975 8.180837 -2.002017
H 9.974280 10.527481 0.407413
H 8.421200 12.434190 1.043358
H 8.682357 9.939555 3.002674
H 10.777303 9.873379 2.937862
H 8.781115 7.641514 0.982729
H 7.962208 8.051153 3.674925
H 5.259489 5.650671 -1.194085
H 5.961823 7.275573 -2.865940
H 4.806801 9.570799 -3.853332
H 3.619850 10.292180 -0.928513
H 2.937823 8.711055 0.795573
O -0.879435 3.876234 -2.554041
C 0.272128 3.740329 -2.202041
O 1.333936 3.492986 -3.016682
C 0.848788 3.213884 -4.339297
O 0.597742 4.407548 -5.095972
C 0.556954 4.104679 -6.497961
C -0.172476 5.191745 -7.259931
O -0.272720 4.787466 -8.613848
C 1.988238 3.916122 -7.007242
O 2.627280 5.181362 -7.261376
C 2.809682 3.188376 -5.938900
O 3.866927 2.438699 -6.594144
C 1.893310 2.281345 -5.106580
O 2.616566 1.418627 -4.233115
C 0.593275 3.867324 -0.750972
C -0.252093 3.600055 0.259863
C 0.128869 4.151815 1.659935
C -0.595039 5.283925 2.071258
C -0.732839 5.611011 3.447013
C 0.133767 5.069108 4.309954
O 0.221199 5.539110 5.584156
C 1.038412 4.119822 3.859613
C 0.998093 3.565481 2.540625
H -0.096196 2.623965 -4.329828
H 0.018068 3.151937 -6.650616
H 0.368281 6.139386 -7.194291
H -1.165849 5.341682 -6.848290
H -0.745081 3.935014 -8.604810
H 1.963590 3.363551 -7.952470
H 3.270275 5.000646 -7.973257
H 3.321319 3.913318 -5.271019
H 3.439631 1.832642 -7.243341
H 1.364404 1.662055 -5.822973
H 1.999649 1.215478 -3.496991
H -1.283406 5.777705 1.374274
H -1.457529 6.346377 3.720403
H -0.460621 5.085601 6.123823
H 1.801403 3.738715 4.496317
H 1.701594 2.806331 2.283486
O -5.442514 -1.239161 -7.373141
C -6.231496 -0.330603 -7.144482
O -6.555187 0.646834 -7.984277
C -5.849269 0.695229 -9.195242
O -6.802144 0.693626 -10.318044
C -6.243970 1.057516 -11.619614
C -6.999056 2.226571 -12.261927
O -6.449142 2.472069 -13.576926
C -4.732682 1.390235 -11.636519
O -4.018950 0.127108 -11.697630
C -4.215467 2.170138 -10.403790
O -4.052601 3.558616 -10.699692
C -5.145125 2.027390 -9.202035
O -6.155733 3.088084 -9.218025
C -7.035040 -0.264981 -5.845464
C -6.550707 -0.911559 -4.717746
C -7.521252 -1.205910 -3.664821
C -8.461830 -2.187813 -4.003062
C -9.594033 -2.356142 -3.198373
C -9.771077 -1.611154 -2.050692
O -10.792438 -1.794083 -1.194129
C -8.817334 -0.650138 -1.705201
C -7.712819 -0.397978 -2.528240
H -5.126712 -0.122842 -9.328425
H -6.378401 0.172037 -12.231481
H -6.922855 3.119989 -11.670138
H -8.041104 1.948038 -12.395062
H -6.391247 3.442925 -13.670390
H -4.468539 1.951528 -12.528564
H -3.079071 0.319819 -11.581611
H -3.231036 1.780669 -10.131908
H -3.629232 3.947049 -9.918710
H -4.578763 2.143761 -8.286256
H -5.684809 3.893472 -9.520183
H -8.348459 -2.744543 -4.913667
H -10.312570 -3.103280 -3.503918
H -11.625243 -1.754980 -1.710237
H -8.949025 -0.062010 -0.793484
H -7.022325 0.431024 -2.295171
O -5.638632 -2.182860 -1.996514
C -5.055219 -3.244046 -2.259875
O -5.328196 -4.444888 -1.749101
C -6.647157 -4.409702 -1.127044
O -6.602068 -4.252741 0.326788
C -7.967104 -3.948664 0.765324
C -8.017956 -3.574868 2.230731
O -9.331010 -3.734658 2.743900
C -8.855072 -5.213728 0.579840
O -8.381576 -6.247387 1.472544
C -8.829372 -5.728711 -0.851144
O -9.612712 -4.879664 -1.703129
C -7.392896 -5.737086 -1.415790
O -7.501383 -5.897461 -2.836600
C -4.056398 -3.288799 -3.395423
C -3.001412 -4.125122 -3.501059
C -2.553740 -4.418052 -4.923105
C -1.191324 -4.198809 -5.171686
C -0.674667 -4.563862 -6.386220
C -1.409649 -5.332897 -7.284210
O -0.861068 -5.840932 -8.385423
C -2.759791 -5.498494 -7.055902
C -3.362407 -5.013724 -5.897050
H -7.258052 -3.578817 -1.531697
H -8.429575 -3.203341 0.145333
H -7.751796 -2.528412 2.319933
H -7.323686 -4.228302 2.810057
H -9.237241 -4.276828 3.561220
H -9.889385 -4.973449 0.827829
H -8.827127 -7.102450 1.199595
H -9.268118 -6.720549 -0.926050
H -10.466839 -4.721001 -1.258747
H -6.835859 -6.594596 -1.010504
H -8.146431 -5.208338 -3.119381
H -0.623778 -3.614473 -4.450328
H 0.271276 -4.198190 -6.709495
H -0.053171 -6.301721 -8.125450
H -3.425367 -6.012848 -7.757451
H -4.445041 -5.119177 -5.695512
O 1.183280 -3.207135 -1.087733
C 0.602718 -4.060255 -1.762279
O 0.883040 -4.325004 -3.078940
C 1.926968 -3.351221 -3.598503
O 1.550443 -3.161100 -5.030360
C 2.654028 -2.925865 -5.944878
C 3.260666 -4.252955 -6.545564
O 4.672743 -4.416219 -6.400163
C 3.630987 -1.968185 -5.309706
O 4.354414 -1.414442 -6.374977
C 4.373594 -2.775197 -4.207842
O 5.167540 -1.899442 -3.378473
C 3.395308 -3.704605 -3.373227
O 3.464989 -5.073809 -3.786382
C -0.579610 -4.768638 -1.196639
C -0.508853 -4.937581 0.173441
C -1.601437 -5.685320 0.939494
C -2.985801 -5.507078 0.782627
C -3.888397 -6.252993 1.512956
C -3.443097 -7.184561 2.461328
O -4.297585 -7.932260 3.169471
C -2.088418 -7.344285 2.660923
C -1.167533 -6.621135 1.912594
H 1.821866 -2.338184 -3.133526
H 2.163970 -2.457012 -6.786254
H 2.766034 -5.137664 -6.162740
H 3.104314 -4.221391 -7.632580
H 5.002726 -4.266376 -7.319273
H 3.018894 -1.190049 -4.876458
H 5.146429 -0.971914 -5.991163
H 5.182035 -3.383839 -4.659923
H 5.721199 -2.460338 -2.781187
H 3.604202 -3.618100 -2.305902
H 4.303700 -5.265595 -4.289351
H -3.338247 -4.777857 0.044451
H -4.936935 -6.088217 1.377783
H -5.126125 -8.059006 2.677899
H -1.721926 -8.060449 3.406125
H -0.093541 -6.773689 2.051603
O 0.103701 -0.792742 3.012933
C 0.577790 -1.593912 3.811927
O 0.217384 -1.669858 5.143866
C -1.103171 -1.065310 5.383412
O -1.948469 -1.964145 6.133446
C -2.116289 -1.807884 7.580691
C -3.461941 -2.504863 7.794084
O -3.295409 -3.929154 7.628445
C -2.272837 -0.396882 8.149180
O -2.221934 -0.333654 9.573937
C -1.248714 0.514781 7.511588
O -1.718701 1.862750 7.744813
C -1.303292 0.357093 5.982105
O -2.744806 0.620372 5.797104
C 1.183339 -2.836305 3.309587
C 2.016722 -3.514814 4.203238
C 1.442600 -4.882061 4.568750
C 0.679813 -4.961474 5.752420
C 0.221582 -6.202929 6.224683
C 0.522600 -7.351810 5.529412
O 0.065985 -8.517540 6.027764
C 1.354222 -7.264063 4.416744
C 1.880046 -6.047757 3.968358
H -1.573249 -0.950953 4.440323
H -1.212215 -2.265056 7.952080
H -4.179189 -2.148876 7.017972
H -3.840583 -2.321017 8.797868
H -3.930806 -4.335572 8.258722
H -3.247860 -0.023444 7.901170
H -2.118143 -1.231097 9.950224
H -0.277690 0.389040 8.009366
H -2.355906 2.014717 7.009785
H -0.756491 1.165417 5.459468
H -3.181437 -0.284239 5.828104
H 0.433647 -4.061854 6.304553
H -0.456178 -6.176203 7.059972
H 0.124564 -9.210052 5.354926
H 1.614507 -8.161325 3.872800
H 2.586656 -6.080172 3.130298
O 6.274397 0.278571 6.001600
C 5.689612 -0.677790 5.483357
O 6.288787 -1.872953 5.181142
C 7.623701 -1.867063 5.905017
O 7.657733 -3.201651 6.421842
C 8.948466 -3.780082 6.763834
C 9.360258 -3.504759 8.243160
O 10.615757 -4.117462 8.621081
C 10.067178 -3.509259 5.758263
O 11.325654 -4.045423 6.167595
C 10.184586 -2.003493 5.514092
O 10.536085 -1.297224 6.726002
C 8.849046 -1.431522 5.012076
O 8.969423 -0.031504 5.077035
C 4.211179 -0.570663 5.012595
C 3.995443 0.784457 4.868139
C 3.309660 1.614542 5.985967
C 4.067829 2.160128 7.058038
C 3.447099 2.917358 8.058695
C 2.107196 3.133368 8.021156
O 1.540023 3.882660 8.998536
C 1.365009 2.652300 6.949636
C 1.944479 1.856472 5.944671
H 7.630449 -1.181377 6.757879
H 8.748898 -4.857498 6.727039
H 9.368348 -2.430816 8.515094
H 8.652337 -4.023595 8.876105
H 10.681867 -4.880980 7.970249
H 9.832710 -4.028472 4.851017
H 12.035601 -3.625171 5.562125
H 10.973765 -1.805099 4.764569
H 10.135041 -0.402016 6.614264
H 8.750150 -1.745076 3.959864
H 8.628776 0.319053 4.229491
H 5.127460 1.986829 7.086594
H 4.093683 3.299369 8.838376
H 0.726416 3.431070 9.297411
H 0.321051 2.916638 6.896442
H 1.343628 1.473616 5.107949
O 3.588069 4.726404 5.819632
C 3.878973 5.086233 4.705149
O 3.586121 6.318220 4.129794
C 3.012618 7.192243 5.101823
O 3.938195 8.147796 5.667838
C 3.278833 9.022926 6.651696
C 3.386763 10.483898 6.144963
O 2.272702 11.322775 6.475689
C 1.839679 8.616677 6.970613
O 1.325284 9.392585 8.023359
C 1.042761 8.765037 5.645215
O -0.282665 8.192648 5.754473
C 1.801743 8.062955 4.476623
O 2.306001 9.061919 3.570231
C 4.553959 4.103651 3.688592
C 4.777105 4.475352 2.402393
C 5.857295 3.812034 1.606304
C 7.035238 4.524281 1.269260
C 7.988785 3.979499 0.410198
C 7.837416 2.738302 -0.087710
O 8.742584 2.161734 -0.889712
C 6.672159 2.028725 0.224527
C 5.677621 2.579496 1.053107
H 2.571558 6.616982 5.927488
H 3.867115 8.898906 7.558745
H 4.226521 10.916087 6.701326
H 3.578572 10.509843 5.068999
H 2.603153 12.248481 6.432738
H 1.738160 7.585962 7.325807
H 0.350166 9.360437 7.951524
H 0.880295 9.801509 5.387647
H -0.104729 7.261108 6.021628
H 1.116411 7.443545 3.873588
H 1.527692 9.619618 3.386580
H 7.275721 5.488146 1.706309
H 8.857478 4.573103 0.217362
H 9.590543 2.627799 -0.804880
H 6.500489 1.047870 -0.182898
H 4.762037 2.004068 1.273520
O 1.194096 7.236017 1.231696
C 1.226156 6.429722 0.303253
O 0.327719 6.376812 -0.720882
C -0.613612 7.469023 -0.650294
O -1.899406 7.107843 -1.290302
C -1.947514 7.586746 -2.691548
C -1.024642 6.785210 -3.624541
O -1.176669 7.231778 -4.979101
C -1.759292 9.116287 -2.833974
O -0.837909 9.398714 -3.885273
C -1.134123 9.718531 -1.600613
O -2.106279 9.901366 -0.563309
C -0.025851 8.813392 -1.123441
O 0.610783 9.453066 -0.003703
C 2.277327 5.334712 0.248123
C 2.012704 4.180469 -0.380835
C 2.901690 3.047391 -0.665625
C 3.897655 3.146889 -1.653990
C 4.534039 2.006889 -2.077151
C 4.174700 0.759727 -1.564969
O 4.870274 -0.369994 -1.742395
C 3.099593 0.658734 -0.690374
C 2.456087 1.782219 -0.252967
H -0.942978 7.607496 0.386774
H -2.960014 7.377783 -3.026124
H 0.031286 6.802162 -3.283117
H -1.394858 5.771222 -3.635380
H -0.250651 7.331206 -5.319811
H -2.725404 9.607148 -3.011108
H -1.386025 9.473597 -4.700185
H -0.687855 10.686485 -1.846448
H -1.883943 10.767255 -0.133660
H 0.722014 8.602767 -1.914541
H -0.025896 9.336675 0.733395
H 4.166344 4.109579 -2.085876
H 5.343599 2.069335 -2.779364
H 5.222762 -0.438969 -2.670793
H 2.761926 -0.325684 -0.321172
H 1.618553 1.666319 0.434156
O -2.754613 2.541430 -1.777224
C -2.771408 3.193113 -0.719330
O -3.963123 3.576929 -0.084500
C -5.032124 2.634394 -0.208874
O -6.268795 3.263454 0.383530
C -7.266985 2.187116 0.754910
C -8.578351 2.800863 1.187670
O -9.220500 3.414346 0.053826
C -6.779663 1.292081 1.902553
O -7.090229 1.903778 3.195671
C -5.288221 1.297659 1.845991
O -4.725483 0.295574 2.719187
C -4.748587 1.244019 0.415722
O -5.408072 0.204412 -0.348345
C -1.679253 3.002109 0.249141
C -2.182498 2.524608 1.347527
C -2.810697 3.173254 2.485414
C -3.277879 4.467762 2.182909
C -4.001658 5.210600 3.074829
C -4.448595 4.579911 4.204173
O -5.352766 5.227379 4.978589
C -3.883701 3.328635 4.551121
C -3.040579 2.616754 3.683395
H -5.303699 2.458414 -1.244096
H -7.376267 1.593575 -0.163041
H -9.216997 1.981770 1.544888
H -8.483295 3.541007 1.982765
H -8.847568 4.315851 0.011619
H -7.216828 0.276852 1.817541
H -7.773821 1.348250 3.646580
H -5.008756 2.255125 2.253473
H -5.073491 0.548529 3.603733
H -3.707830 0.959680 0.386325
H -4.746711 -0.095560 -1.025726
H -3.073117 4.934794 1.223142
H -4.268877 6.222405 2.766584
H -5.759299 4.604900 5.610149
H -4.218956 2.852100 5.468727
H -2.649385 1.636434 3.926973
