688
Molecule ID: homopoly_4128060
C 10.608641 -1.816084 7.071339
C 11.385517 -0.750359 6.860104
C 10.817635 0.388261 6.085708
O 9.632442 0.568803 5.890003
O 11.818453 1.152922 5.631394
C 11.403924 2.211401 4.728741
C 10.876448 3.429384 5.490782
C 12.610613 2.641429 3.869919
O 13.016012 1.554109 3.036767
C 13.491712 1.963137 1.756291
C 14.431252 0.870097 1.258389
C 12.337205 2.206226 0.798245
O 12.788968 2.482493 -0.537087
C 11.667736 2.929741 -1.293757
C 11.772598 4.448053 -1.527442
C 11.528672 2.128052 -2.613209
O 10.261690 2.483911 -3.193454
C 9.278320 1.866298 -2.508646
O 9.425710 1.030597 -1.623940
C 7.959403 2.346270 -2.730126
C 6.630476 2.421500 -2.595769
H 10.955531 -2.698097 7.594800
H 9.592709 -1.869978 6.705187
H 12.400739 -0.699944 7.223703
H 10.648426 1.805892 4.056915
H 10.619483 4.231699 4.801852
H 11.619064 3.809449 6.205197
H 9.981896 3.172498 6.043793
H 12.335923 3.528685 3.270216
H 13.461113 2.881206 4.509637
H 14.096939 2.870994 1.821601
H 14.981881 1.217243 0.374622
H 13.879299 -0.031016 0.961257
H 15.137399 0.600000 2.042843
H 11.699113 3.010357 1.201539
H 11.689381 1.339193 0.737124
H 10.759601 2.804008 -0.691161
H 11.223142 4.741836 -2.424207
H 12.809109 4.800665 -1.578098
H 11.280546 4.995113 -0.718709
H 11.644117 1.054549 -2.493394
H 12.335174 2.379377 -3.317234
H 6.137759 3.266658 -2.090401
C -3.323232 -4.787100 -13.076625
C -3.655403 -3.956595 -12.089215
C -2.648313 -3.103862 -11.414052
O -1.608034 -2.703625 -11.917882
O -3.059843 -2.829228 -10.168801
C -2.134680 -2.148444 -9.326001
C -2.409857 -2.542192 -7.884089
C -2.255490 -0.617072 -9.473521
O -1.198198 0.019107 -8.739760
C -0.391247 0.911653 -9.525788
C -1.131701 2.260749 -9.631004
C 0.984770 1.175355 -8.888279
O 1.779977 -0.023931 -8.743770
C 1.773902 -0.559907 -7.430015
C 1.297283 -1.991892 -7.484505
C 3.214443 -0.523767 -6.802335
O 3.125758 -0.707463 -5.351927
C 4.334546 -0.826051 -4.693854
O 5.430591 -1.018257 -5.234544
C 4.154943 -0.457562 -3.233525
C 3.096803 -0.916368 -2.548186
H -2.271776 -4.894833 -13.369388
H -4.052686 -5.381213 -13.595607
H -4.694051 -3.880775 -11.752467
H -1.110619 -2.440210 -9.571939
H -1.935783 -3.507267 -7.678058
H -2.023603 -1.806351 -7.153992
H -3.486638 -2.640965 -7.681865
H -2.235810 -0.334833 -10.532669
H -3.225821 -0.240853 -9.102244
H -0.229435 0.468938 -10.520069
H -1.989134 2.198379 -10.290418
H -1.491319 2.559428 -8.642593
H -0.465430 3.038053 -10.001463
H 0.879804 1.675845 -7.930989
H 1.547153 1.803901 -9.578070
H 1.077637 -0.004393 -6.797774
H 1.142688 -2.429043 -6.490438
H 0.350153 -2.074212 -8.017113
H 2.003986 -2.643370 -8.018645
H 3.706942 0.411642 -7.088962
H 3.829844 -1.351166 -7.203602
H 2.408645 -1.581024 -3.058402
C 1.688018 9.130142 10.007560
C 2.265043 8.237055 9.207820
C 3.727366 8.053511 9.170624
O 4.493834 8.601305 9.945815
O 4.076330 7.234063 8.142719
C 5.485651 7.104278 7.904652
C 6.069272 6.020078 8.803753
C 5.736640 6.781637 6.414831
O 5.721197 5.380258 6.143725
C 6.148751 5.072945 4.817506
C 6.638948 3.624363 4.771424
C 5.016175 5.284773 3.791980
O 4.017697 4.273605 3.918069
C 3.285941 4.069175 2.702185
C 2.475661 5.309276 2.338520
C 2.370040 2.856437 2.930787
O 1.579358 2.541959 1.755199
C 2.221945 2.076451 0.629308
O 3.437912 2.012341 0.449244
C 1.198266 1.632386 -0.371324
C 0.011624 2.292582 -0.345956
H 0.629828 9.304522 9.969951
H 2.278488 9.743186 10.685237
H 1.674730 7.630484 8.510062
H 5.976823 8.069975 8.104896
H 6.047569 6.319367 9.856613
H 7.120725 5.794635 8.561988
H 5.505618 5.082222 8.748996
H 6.713774 7.193799 6.140310
H 4.981555 7.269546 5.801189
H 6.988377 5.725651 4.539441
H 5.877300 2.918663 5.121203
H 6.929301 3.340334 3.760813
H 7.504271 3.480035 5.415154
H 5.455531 5.225338 2.790421
H 4.544101 6.260322 3.916455
H 4.006342 3.844116 1.896647
H 2.009095 5.707775 3.247807
H 3.122171 6.101655 1.943763
H 1.701557 5.119715 1.585189
H 2.936807 1.954679 3.191737
H 1.662475 3.060440 3.730877
H -0.091065 3.113377 0.314938
C -8.671286 -1.392256 -8.891347
C -9.021302 -1.680740 -7.631376
C -8.458742 -2.905076 -6.985648
O -7.722350 -3.721490 -7.544096
O -8.838809 -2.918858 -5.703394
C -8.346051 -4.065089 -4.918016
C -9.347035 -5.210122 -5.049424
C -8.163908 -3.618200 -3.457468
O -9.426590 -3.521785 -2.801609
C -9.338076 -3.222358 -1.411428
C -10.579905 -3.800254 -0.742949
C -9.329629 -1.713866 -1.154854
O -8.040069 -1.120383 -1.432548
C -7.192492 -1.021062 -0.264499
C -7.732778 0.042877 0.714178
C -5.690228 -0.836046 -0.699555
O -5.063855 0.468108 -0.549679
C -4.587251 0.801012 0.668653
O -4.963899 0.260273 1.728822
C -3.449591 1.761754 0.627800
C -3.416800 2.913907 1.365557
H -7.995177 -2.017210 -9.460595
H -9.056488 -0.496993 -9.384068
H -9.681239 -1.066913 -7.048716
H -7.361388 -4.359348 -5.295640
H -9.329337 -5.635558 -6.060219
H -9.111024 -6.029400 -4.345909
H -10.373397 -4.882725 -4.870664
H -7.638875 -2.660736 -3.418677
H -7.576119 -4.379732 -2.949433
H -8.436045 -3.687087 -0.972360
H -11.480321 -3.497273 -1.290881
H -10.544815 -4.892687 -0.759741
H -10.675457 -3.473769 0.300816
H -10.082122 -1.199178 -1.782071
H -9.613202 -1.524037 -0.119975
H -7.255574 -1.988759 0.233226
H -8.812334 0.004530 0.862678
H -7.283260 -0.080480 1.696577
H -7.520953 1.042823 0.338451
H -5.116076 -1.570104 -0.104321
H -5.619021 -1.111699 -1.751781
H -2.417494 3.380897 1.506140
C -14.740899 1.605027 1.036297
C -13.781918 2.480641 0.708244
C -12.982886 2.185340 -0.495557
O -13.065489 1.158226 -1.150185
O -12.161698 3.239670 -0.775486
C -11.325158 2.969161 -1.958387
C -10.924313 4.291181 -2.634758
C -10.179662 1.950703 -1.613512
O -8.834703 2.229688 -1.964937
C -8.170741 3.438748 -1.467297
C -6.672459 3.178702 -1.376842
C -8.704218 4.012974 -0.111203
O -8.426441 3.248108 1.067536
C -9.555617 2.841754 1.850122
C -10.473294 3.989658 2.364515
C -9.195674 1.899025 3.034175
O -7.792103 1.773503 3.303116
C -7.259600 2.890468 3.794177
O -7.839335 3.947840 4.026498
C -5.748211 2.760243 3.831357
C -5.243080 1.895252 4.748148
H -14.895417 0.701715 0.457163
H -15.418771 1.775599 1.864520
H -13.609617 3.387916 1.276723
H -11.989758 2.520032 -2.707406
H -10.283071 4.115427 -3.512727
H -11.804648 4.872300 -2.937787
H -10.393650 4.972120 -1.972189
H -10.415435 1.088743 -2.256977
H -10.238056 1.536934 -0.604435
H -8.278925 4.159468 -2.289891
H -6.344443 2.798384 -0.416948
H -6.097771 4.112632 -1.568950
H -6.374094 2.436487 -2.134198
H -9.778887 4.249051 -0.166769
H -8.165646 4.990192 0.012226
H -10.194720 2.244627 1.199175
H -9.949385 4.638341 3.062277
H -10.830576 4.646349 1.559323
H -11.366885 3.588502 2.862454
H -9.523811 0.884081 2.799929
H -9.737821 2.130852 3.956918
H -5.891019 1.143473 5.196273
C 0.832144 -2.295618 11.991245
C 1.195207 -3.356348 11.255308
C 0.194044 -4.108562 10.453513
O -0.977996 -3.802761 10.305530
O 0.811697 -5.191688 9.926920
C -0.025665 -6.068628 9.124019
C 0.464529 -7.488318 9.343636
C -0.000825 -5.657307 7.651060
O 1.289246 -5.870066 7.065854
C 1.377486 -5.260120 5.761318
C 2.112912 -6.228473 4.856681
C 2.154048 -3.950795 5.868660
O 1.303234 -2.998599 6.492603
C 1.958866 -1.765345 6.791194
C 1.994587 -1.598121 8.299392
C 1.171281 -0.620439 6.121192
O -0.231719 -0.753947 6.349678
C -0.953991 0.085147 5.553027
O -0.535791 1.118833 5.062681
C -2.313335 -0.446550 5.337449
C -2.538059 -1.804185 5.305680
H 1.567675 -1.734308 12.559813
H -0.200347 -1.963779 12.040577
H 2.221361 -3.683839 11.196080
H -1.062290 -6.013400 9.482029
H 0.384762 -7.755835 10.403514
H -0.117385 -8.204950 8.765216
H 1.519554 -7.609568 9.075682
H -0.284907 -4.608313 7.569437
H -0.707794 -6.269710 7.087988
H 0.385051 -5.080406 5.346067
H 3.065739 -6.539806 5.301704
H 1.516783 -7.138604 4.724005
H 2.302162 -5.787853 3.874820
H 3.046331 -4.080815 6.484678
H 2.435015 -3.576077 4.882108
H 2.990698 -1.759329 6.408925
H 0.984938 -1.517578 8.702085
H 2.561211 -0.704056 8.593365
H 2.453213 -2.473368 8.770739
H 1.529929 0.337215 6.496025
H 1.362750 -0.669318 5.040832
H -1.679459 -2.469872 5.416009
C -3.122356 -11.339408 3.439927
C -4.030844 -10.602334 2.799710
C -5.400792 -11.132898 2.603811
O -5.829855 -12.152816 3.159006
O -6.091755 -10.324880 1.770292
C -7.519734 -10.632528 1.608794
C -7.671140 -11.448934 0.335147
C -8.340099 -9.329267 1.475739
O -8.391832 -8.567313 2.684560
C -7.178993 -7.847727 2.937664
C -7.418734 -6.343718 2.760445
C -6.741079 -8.119679 4.380892
O -5.577332 -7.344670 4.634064
C -5.255660 -7.178015 6.004164
C -6.021736 -5.941222 6.521601
C -3.734012 -6.988921 6.121180
O -3.304658 -5.813538 5.429108
C -3.105861 -5.905359 4.081650
O -2.980484 -6.918306 3.432138
C -3.100812 -4.473242 3.538566
C -2.550717 -4.129498 2.363750
H -2.131487 -10.967156 3.628193
H -3.362999 -12.337646 3.824278
H -3.800968 -9.607969 2.433758
H -7.865552 -11.178135 2.483612
H -7.741777 -10.803274 -0.541291
H -8.598931 -12.049611 0.360162
H -6.800083 -12.097148 0.129393
H -9.371914 -9.611890 1.225040
H -7.949957 -8.692274 0.676116
H -6.392246 -8.102716 2.240443
H -7.687420 -6.091441 1.735480
H -8.245768 -5.973578 3.394314
H -6.528409 -5.745167 3.005210
H -6.509760 -9.187772 4.514656
H -7.548684 -7.875851 5.082416
H -5.571777 -8.057550 6.576212
H -5.568234 -4.995763 6.216175
H -7.039884 -5.922767 6.127611
H -6.048359 -5.940145 7.609437
H -3.208413 -7.870930 5.756677
H -3.492417 -6.828134 7.172456
H -2.595934 -3.095229 2.034986
C 4.920670 -4.325459 -4.900166
C 3.694742 -4.159652 -5.421368
C 2.664245 -5.216355 -5.457063
O 1.482389 -4.902306 -5.569408
O 3.205734 -6.454779 -5.300667
C 2.269268 -7.575343 -5.182395
C 2.851948 -8.590724 -4.223422
C 2.031477 -8.208513 -6.545228
O 1.450636 -7.276032 -7.447267
C 0.041789 -7.390172 -7.644083
C -0.107906 -7.023412 -9.127387
C -0.786668 -6.389170 -6.815210
O -0.928939 -6.700097 -5.417603
C -1.666106 -5.669027 -4.681185
C -3.088956 -5.581875 -5.302273
C -1.874358 -6.044206 -3.153868
O -0.973125 -5.492775 -2.191796
C -0.470895 -6.394640 -1.303261
O -0.414385 -7.608502 -1.454240
C 0.085341 -5.677913 -0.077757
C 1.440419 -5.630955 0.033164
H 5.633622 -3.507466 -4.877210
H 5.222216 -5.293886 -4.508157
H 3.364290 -3.224341 -5.800172
H 1.332568 -7.202987 -4.779023
H 2.569612 -8.322621 -3.184775
H 2.445974 -9.600697 -4.386861
H 3.941760 -8.622521 -4.257091
H 2.990523 -8.489415 -6.994015
H 1.427516 -9.130152 -6.453545
H -0.326358 -8.420963 -7.483081
H 0.511465 -7.676113 -9.748558
H -1.146999 -7.077679 -9.470748
H 0.270215 -6.006399 -9.298047
H -1.782350 -6.378910 -7.272528
H -0.376367 -5.373077 -6.931081
H -1.123507 -4.726577 -4.757372
H -3.779879 -5.004903 -4.680870
H -3.081066 -5.097043 -6.283430
H -3.506724 -6.586810 -5.438754
H -2.005903 -7.119407 -3.080034
H -2.803201 -5.569611 -2.854579
H 1.907991 -5.245756 0.923772
C -5.106976 1.588850 -4.970711
C -3.956813 1.184274 -5.530427
C -2.856441 0.831608 -4.611555
O -2.989740 0.249826 -3.549488
O -1.681266 1.241356 -5.138342
C -0.542792 0.988286 -4.286895
C -0.208739 -0.526811 -4.307802
C 0.638653 1.862395 -4.725646
O 0.686292 3.069403 -3.918905
C 2.011363 3.570124 -3.655342
C 1.990667 4.553692 -2.492258
C 2.687222 4.269602 -4.857370
O 4.014521 4.632352 -4.456229
C 4.909911 4.967453 -5.511647
C 6.060698 5.651254 -4.778258
C 5.439764 3.721988 -6.254478
O 6.027107 2.851751 -5.278940
C 5.154089 2.042810 -4.644364
O 4.020932 1.808976 -5.001739
C 5.718990 1.556690 -3.323343
C 5.190232 0.486395 -2.711237
H -5.266660 1.583170 -3.888896
H -5.943095 1.937670 -5.573402
H -3.761280 1.180042 -6.600625
H -0.820282 1.247073 -3.268792
H 0.688251 -0.729572 -4.892725
H -1.017678 -1.149078 -4.712186
H 0.031209 -0.884202 -3.302903
H 1.554548 1.300132 -4.582876
H 0.574423 2.136262 -5.773079
H 2.629406 2.754134 -3.285859
H 1.344222 4.214149 -1.679536
H 1.647598 5.531252 -2.829796
H 3.014287 4.715920 -2.121212
H 2.137048 5.178946 -5.129170
H 2.707049 3.645542 -5.755726
H 4.421634 5.658333 -6.194952
H 6.928095 5.821787 -5.430996
H 5.714640 6.616098 -4.385639
H 6.424686 5.072667 -3.908550
H 6.239896 3.975194 -6.952296
H 4.635088 3.235867 -6.821452
H 5.491152 0.256617 -1.687077
C 2.843201 -9.929010 6.509732
C 2.359336 -9.832385 5.264533
C 3.175423 -9.803146 4.041273
O 2.722148 -10.122461 2.954923
O 4.433366 -9.372994 4.292001
C 5.330823 -9.313090 3.158678
C 5.858967 -10.720398 2.869795
C 6.538621 -8.401439 3.508078
O 6.176195 -7.026788 3.658674
C 6.231018 -6.242494 2.458358
C 7.670153 -6.023919 1.984671
C 5.608164 -4.867945 2.779977
O 5.530635 -4.021192 1.636247
C 5.449313 -2.646298 1.974421
C 6.584354 -1.882204 1.315973
C 4.088386 -2.084994 1.564353
O 3.906847 -1.682856 0.169359
C 2.814157 -0.917836 0.063430
O 2.023139 -0.731940 0.989355
C 2.570995 -0.336413 -1.328635
C 1.672314 0.684583 -1.411039
H 2.197467 -9.950059 7.373910
H 3.917663 -9.996632 6.688415
H 1.279594 -9.793091 5.081104
H 4.783797 -8.904262 2.307629
H 5.067189 -11.471161 2.823066
H 6.534321 -11.037129 3.678880
H 6.433980 -10.736153 1.947781
H 7.323230 -8.505194 2.753015
H 6.954936 -8.723061 4.475642
H 5.653145 -6.713914 1.672323
H 8.370341 -5.859184 2.821456
H 8.040090 -6.905291 1.438686
H 7.782091 -5.171345 1.284496
H 6.207978 -4.405042 3.597753
H 4.594694 -5.002043 3.181439
H 5.521790 -2.531308 3.066147
H 7.550049 -2.336005 1.566568
H 6.524561 -1.876011 0.221318
H 6.600377 -0.835248 1.660599
H 3.311707 -2.803558 1.802695
H 3.926137 -1.211539 2.178620
H 1.308971 0.980803 -2.381992
C 7.157504 8.933057 -5.524371
C 5.864380 9.234476 -5.764517
C 5.066278 8.439135 -6.727535
O 5.539318 7.641242 -7.519718
O 3.747777 8.753419 -6.607349
C 2.860589 8.012122 -7.476862
C 2.938593 8.611739 -8.904830
C 1.420881 8.146354 -6.970189
O 0.895596 6.841598 -6.670437
C -0.536139 6.842956 -6.438106
C -1.251994 6.629836 -7.770478
C -0.894363 5.680484 -5.503043
O -0.413367 5.958146 -4.178726
C -1.436948 6.343285 -3.273449
C -0.771249 7.112217 -2.155527
C -2.206714 5.122436 -2.715991
O -1.414127 4.185748 -1.949284
C -2.143800 3.073697 -1.616193
O -3.315189 2.929987 -1.961853
C -1.363303 2.046974 -0.794280
C -2.099093 1.346507 0.132833
H 7.760161 9.492928 -4.830484
H 7.651440 8.110095 -6.047370
H 5.364838 10.041406 -5.241418
H 3.165191 6.965144 -7.503959
H 2.323667 8.039663 -9.605366
H 3.957838 8.613283 -9.289975
H 2.597441 9.654041 -8.941617
H 1.355720 8.757185 -6.068593
H 0.787643 8.606385 -7.740942
H -0.822037 7.788762 -5.978024
H -2.334935 6.693137 -7.640569
H -0.997603 5.661366 -8.226103
H -0.951798 7.367096 -8.513957
H -1.988052 5.515604 -5.506652
H -0.407980 4.757819 -5.824908
H -2.135765 7.026616 -3.785365
H 0.321374 7.119799 -2.256416
H -1.111231 8.161197 -2.155899
H -1.024987 6.710683 -1.166422
H -3.014713 5.493756 -2.076563
H -2.668328 4.609061 -3.570924
H -1.609684 0.812742 0.987166
C -1.155036 11.792062 -6.190343
C -1.454626 11.554548 -4.916121
C -2.435053 12.415185 -4.194687
O -3.068778 13.330172 -4.693416
O -2.486537 12.006907 -2.899750
C -3.357951 12.765002 -1.994798
C -2.438973 13.357092 -0.918483
C -4.395769 11.811473 -1.423142
O -3.823179 11.052342 -0.374487
C -4.476651 9.820399 -0.095195
C -3.980534 8.757014 -1.074416
C -4.189129 9.476738 1.395184
O -4.548787 8.150709 1.791208
C -5.953665 7.926338 1.797642
C -6.413362 7.648208 3.209371
C -6.281517 6.793168 0.793554
O -5.929047 5.444438 1.251389
C -4.626014 5.090739 1.093786
O -3.904571 5.512503 0.197354
C -4.387069 3.818305 1.897264
C -5.086674 3.784830 3.048579
H -1.558992 12.643672 -6.734347
H -0.460575 11.154547 -6.713173
H -1.039634 10.715734 -4.364067
H -3.864204 13.574915 -2.527525
H -1.635024 12.643278 -0.643718
H -2.989994 13.632357 -0.010928
H -1.929845 14.243764 -1.298802
H -4.808805 11.178867 -2.208100
H -5.235603 12.378538 -0.980102
H -5.560860 9.934135 -0.209214
H -4.836127 8.280279 -1.575076
H -3.310643 9.152128 -1.840491
H -3.439739 7.947706 -0.552043
H -3.115629 9.619831 1.582848
H -4.679021 10.211546 2.036522
H -6.487339 8.807714 1.467682
H -5.935355 6.745163 3.573658
H -7.507558 7.549125 3.252122
H -6.122329 8.456836 3.865005
H -7.371673 6.752594 0.625423
H -5.792168 6.972256 -0.135615
H -5.535355 4.746373 3.254494
C 4.662435 11.197659 2.058659
C 3.823116 10.210619 2.357581
C 2.367187 10.379400 2.171188
O 1.818584 11.423024 1.809550
O 1.750978 9.198646 2.423541
C 0.327923 9.151954 2.166995
C 0.117484 8.967408 0.661830
C -0.252488 7.925881 2.897630
O -0.659192 8.194884 4.236810
C -1.436376 7.084385 4.753931
C -2.815725 7.589754 5.186099
C -0.674797 6.397525 5.908234
O -1.529754 5.400187 6.431611
C -1.071508 4.587846 7.495171
C -0.755111 5.490705 8.711158
C -2.190240 3.589009 7.852752
O -2.469718 2.505392 6.916357
C -3.134480 2.839518 5.793271
O -3.288203 3.969623 5.354165
C -3.814536 1.708874 5.131611
C -3.400122 0.443487 4.938760
H 4.303529 12.148552 1.654005
H 5.734531 11.093109 2.185762
H 4.170317 9.252857 2.755281
H -0.146770 10.062406 2.534093
H -0.931618 8.761614 0.410554
H 0.731500 8.133252 0.268502
H 0.397822 9.856917 0.099686
H -1.103767 7.529764 2.333004
H 0.512676 7.159943 2.980293
H -1.602048 6.319446 3.993536
H -3.547546 6.779033 5.217783
H -2.778921 8.028744 6.186248
H -3.195793 8.345767 4.500525
H -0.394473 7.151469 6.647076
H 0.245235 5.939099 5.534162
H -0.194517 4.018089 7.173665
H -0.608040 4.940682 9.648829
H -1.562115 6.239861 8.871827
H 0.170362 6.048179 8.515099
H -1.913907 3.109269 8.814895
H -3.155768 4.106017 8.024393
H -4.097592 -0.084986 4.307865
C -2.703858 10.128701 8.437862
C -3.569668 9.591375 9.302760
C -4.701076 8.797085 8.722874
O -5.045269 8.900576 7.543561
O -5.187954 7.929548 9.626398
C -6.114540 6.973206 9.071078
C -7.567070 7.481479 9.205044
C -5.988877 5.588947 9.726974
O -6.491720 4.669957 8.728536
C -6.991191 3.370667 9.064939
C -7.501166 3.205290 10.482312
C -5.939464 2.308356 8.671204
O -6.500968 0.992938 8.627900
C -5.512154 -0.002389 8.310920
C -4.762546 -0.397544 9.570831
C -6.153149 -1.257071 7.647932
O -5.151691 -2.037921 6.966682
C -5.135524 -1.952841 5.610464
O -5.939875 -1.371506 4.928075
C -3.804323 -2.493159 5.052632
C -4.005549 -3.564199 4.254390
H -1.812805 10.655544 8.769125
H -2.846871 10.084332 7.371977
H -3.449962 9.632873 10.377587
H -5.913829 6.836114 8.002893
H -8.289756 6.782934 8.777496
H -7.849832 7.646448 10.257855
H -7.699146 8.440295 8.691283
H -4.937293 5.355399 9.962330
H -6.553527 5.550044 10.663905
H -7.832071 3.181101 8.392497
H -8.266688 3.946773 10.691209
H -6.700021 3.355873 11.211420
H -7.922165 2.203793 10.644048
H -5.114102 2.378328 9.386949
H -5.563569 2.554482 7.665901
H -4.817411 0.374962 7.570516
H -4.167034 -1.313139 9.422997
H -5.458890 -0.554899 10.405367
H -4.081457 0.405809 9.872588
H -6.587138 -1.888857 8.430014
H -6.974680 -0.946147 6.994236
H -5.035004 -3.924534 4.150488
C 2.365090 -14.380921 -1.554675
C 2.728139 -13.549227 -2.543231
C 1.893122 -13.225276 -3.718347
O 2.400919 -12.680549 -4.702594
O 0.609267 -13.510833 -3.493028
C -0.306082 -12.678416 -4.230973
C -0.860960 -13.431229 -5.447066
C -1.491566 -12.270505 -3.332178
O -2.061418 -11.136874 -3.969601
C -3.452831 -10.906160 -4.006158
C -4.348546 -11.817718 -3.184336
C -3.672051 -9.428121 -3.645211
O -3.507807 -9.224907 -2.228960
C -4.297001 -8.182476 -1.628825
C -5.772800 -8.644858 -1.592174
C -3.760763 -8.016859 -0.192056
O -2.803599 -6.934215 -0.043865
C -3.218308 -5.853995 0.657010
O -4.406600 -5.584477 0.876950
C -2.073247 -5.047797 1.266851
C -0.749442 -5.021870 0.950866
H 1.441436 -14.949534 -1.584319
H 2.974992 -14.520865 -0.650220
H 3.648660 -12.986053 -2.511376
H 0.186335 -11.764799 -4.559263
H -1.232003 -14.426231 -5.167500
H -0.072908 -13.599922 -6.179661
H -1.676841 -12.878895 -5.920983
H -2.135942 -13.136461 -3.197815
H -1.164471 -11.984439 -2.324819
H -3.758914 -10.977766 -5.055141
H -3.953121 -12.013848 -2.185263
H -5.361130 -11.416520 -3.081940
H -4.465480 -12.803537 -3.669074
H -4.656452 -9.127108 -4.011330
H -2.925545 -8.808953 -4.148052
H -4.197208 -7.252000 -2.180087
H -6.134176 -8.920967 -2.576636
H -6.419159 -7.873215 -1.179655
H -5.871845 -9.545717 -0.968769
H -3.211161 -8.906820 0.098162
H -4.592263 -7.871936 0.503983
H -0.155219 -4.357980 1.572768
C 4.094144 -1.762426 -10.298588
C 4.940838 -2.767640 -9.861768
C 6.366605 -2.423710 -9.675147
O 6.720981 -1.292404 -9.357268
O 7.049839 -3.534607 -9.388199
C 7.811980 -3.501573 -8.152544
C 9.249191 -3.137613 -8.428935
C 7.627143 -4.894315 -7.563459
O 8.200175 -5.055912 -6.261578
C 7.759445 -6.290183 -5.656114
C 8.588909 -7.466345 -6.177537
C 7.876750 -6.193365 -4.137822
O 6.789564 -6.944859 -3.533344
C 6.791895 -6.918284 -2.079046
C 6.650326 -5.482669 -1.566615
C 5.646236 -7.792426 -1.533116
O 4.377376 -7.105617 -1.717353
C 3.552448 -6.957231 -0.632896
O 3.726591 -7.450991 0.480976
C 2.404541 -6.036800 -1.003037
C 2.057419 -5.841082 -2.219168
H 4.466976 -0.967145 -10.927156
H 3.061864 -1.793228 -9.942971
H 4.582215 -3.526564 -9.185983
H 7.375218 -2.770620 -7.457123
H 9.309753 -2.148934 -8.912035
H 9.840019 -3.091205 -7.499496
H 9.744490 -3.857116 -9.099375
H 8.043005 -5.634589 -8.247475
H 6.546302 -5.081596 -7.501183
H 6.711823 -6.470287 -5.907233
H 8.311874 -8.392001 -5.670566
H 9.659124 -7.284931 -6.005098
H 8.462532 -7.593266 -7.253873
H 7.826511 -5.152672 -3.822673
H 8.817892 -6.608717 -3.780703
H 7.746438 -7.348012 -1.774518
H 5.925363 -4.907321 -2.157650
H 7.600680 -4.947183 -1.612787
H 6.317908 -5.455862 -0.525271
H 5.577807 -8.732438 -2.094419
H 5.842235 -8.011906 -0.469671
H 1.513568 -5.531031 -3.099864
