544
Molecule ID: homopoly_107516
O -0.541602 10.935746 -1.422700
C 0.146284 9.933387 -1.449806
O 1.239863 9.647616 -0.718802
C 1.979657 10.599554 0.074784
C 1.612272 12.089083 0.109544
F 2.753159 12.780008 0.434151
F 1.340555 12.500927 -1.160976
C 0.504668 12.506435 1.090661
F 0.197499 13.818689 0.891135
F -0.641520 11.811610 0.871404
C 0.897837 12.305081 2.549140
F 2.154282 12.811159 2.764540
F 1.021323 10.976069 2.828307
C -0.052184 12.953651 3.549190
F 0.440899 12.715637 4.807162
F 0.017015 14.310961 3.396475
C -1.519475 12.545866 3.528031
F -2.169634 13.268669 4.491577
F -2.096184 12.921804 2.357563
C -1.744599 11.066143 3.786487
F -1.194239 10.327295 2.781053
F -1.091258 10.689295 4.916395
C -3.222341 10.734428 3.889852
F -3.871192 11.112791 2.759118
F -3.795555 11.420948 4.914955
C -3.399114 9.243146 4.099133
F -4.715868 8.939343 4.245869
F -2.794100 8.831152 5.241497
C -0.138916 8.877728 -2.374381
C -0.218735 7.929867 -3.263131
H 2.067132 10.193911 1.086163
H 2.998728 10.534439 -0.326990
H -3.016312 8.655423 3.262265
H -0.656039 8.162365 -4.237555
O -2.715789 5.508102 -1.486778
C -1.786627 5.425824 -2.274343
O -1.896236 5.445454 -3.624785
C -3.239501 5.301852 -4.125029
C -3.198995 4.948141 -5.617283
F -1.988452 4.403076 -5.915840
F -3.282296 6.093404 -6.347829
C -4.330378 3.995158 -5.971581
F -5.530486 4.585841 -5.688157
F -4.278363 2.915232 -5.140874
C -4.288344 3.582228 -7.443032
F -3.035567 3.237678 -7.836528
F -4.630421 4.648879 -8.213477
C -5.216420 2.405397 -7.686688
F -4.833141 1.387455 -6.857442
F -6.485947 2.714914 -7.316953
C -5.215490 1.815263 -9.089032
F -3.956479 1.457073 -9.457963
F -5.916640 0.633239 -9.037627
C -5.848997 2.682278 -10.156970
F -7.108332 3.033730 -9.780671
F -5.166161 3.856230 -10.260992
C -5.872488 2.018088 -11.528904
F -4.598668 1.779458 -11.950042
F -6.394895 2.915444 -12.423623
C -6.678585 0.733787 -11.588072
F -7.918175 0.910619 -11.071029
F -6.850922 0.343624 -12.876409
C -0.367171 5.128612 -1.889873
C -0.146318 3.983936 -1.208477
H -3.740748 4.513278 -3.553713
H -3.781967 6.243668 -3.976555
H -6.190165 -0.097196 -11.074652
H 0.884867 3.712194 -0.957845
O 0.807839 3.981243 1.464254
C -0.080566 3.404519 2.072510
O -0.444470 3.664263 3.358541
C 0.450690 4.538608 4.077918
C -0.153347 5.924156 4.276088
F -0.673636 6.368002 3.095064
F -1.212893 5.834806 5.125748
C 0.840771 6.952362 4.802949
F 0.227678 8.161846 4.926829
F 1.804868 7.149437 3.847277
C 1.535045 6.590644 6.108762
F 2.440213 7.573482 6.405765
F 2.301954 5.472625 5.886794
C 0.675652 6.332146 7.338096
F 1.511697 5.994306 8.365976
F -0.082780 5.219376 7.128184
C -0.195112 7.508318 7.743778
F -1.109636 7.741621 6.770167
F 0.552413 8.640237 7.817487
C -0.911241 7.267015 9.059827
F 0.010536 7.017456 10.033974
F -1.663024 6.134233 8.973247
C -1.773955 8.444070 9.491854
F -2.290936 8.175510 10.729305
F -1.003477 9.557887 9.648797
C -2.910561 8.748522 8.529034
F -3.635175 7.634131 8.262516
F -3.769973 9.650065 9.076167
C -0.934585 2.326629 1.524350
C -1.125136 1.168165 2.210920
H 0.603585 4.062921 5.052520
H 1.429675 4.596056 3.589415
H -2.563408 9.186868 7.593553
H -1.772224 0.455606 1.707510
O -3.831439 -2.665501 4.253148
C -3.106243 -1.683123 4.132459
O -3.402377 -0.436332 4.580401
C -4.680483 -0.315710 5.214569
C -5.090130 1.133020 5.541078
F -5.203822 1.246428 6.892893
F -6.350091 1.314585 5.039727
C -4.186321 2.239901 5.010073
F -4.164289 2.220828 3.642515
F -2.895386 1.987468 5.386653
C -4.546962 3.624772 5.526036
F -4.302335 3.641918 6.877508
F -3.635817 4.510083 5.007496
C -5.943963 4.173356 5.291821
F -6.865042 3.405647 5.925935
F -6.014814 5.393910 5.909134
C -6.308905 4.348570 3.830017
F -5.344412 5.069423 3.197402
F -6.323439 3.136698 3.210597
C -7.666096 5.024762 3.671805
F -7.677618 6.215747 4.322856
F -8.628824 4.265171 4.261043
C -8.000830 5.235772 2.209168
F -7.036483 5.978827 1.592641
F -8.012652 4.045485 1.534458
C -9.339641 5.921906 2.028916
F -9.368350 7.129602 2.640703
F -10.345620 5.186680 2.568272
C -1.852927 -1.624149 3.297589
C -2.001331 -2.323346 2.149811
H -5.437479 -0.728889 4.539131
H -4.668163 -0.906968 6.135239
H -9.558628 6.073348 0.971360
H -2.869201 -2.984121 2.129492
O -4.176864 -1.356599 0.071118
C -4.258194 -2.570492 0.031661
O -5.331404 -3.294076 0.445137
C -6.368011 -2.468136 1.026406
C -7.379080 -3.307989 1.809672
F -6.684237 -4.212509 2.562967
F -8.119448 -4.046228 0.933692
C -8.287740 -2.483457 2.729481
F -7.507677 -1.722520 3.551415
F -8.983182 -3.323346 3.542130
C -9.255577 -1.597634 1.973780
F -8.580756 -0.971819 0.965707
F -10.198313 -2.354199 1.351562
C -9.912613 -0.489070 2.784027
F -8.952539 0.376239 3.217459
F -10.674777 0.236100 1.909184
C -10.762231 -0.941366 3.950825
F -9.979826 -1.668031 4.806252
F -11.716670 -1.804228 3.508001
C -11.392800 0.188113 4.762296
F -10.411136 0.970116 5.288295
F -12.014443 -0.389509 5.832946
C -12.385727 1.049375 4.004362
F -11.749111 1.803893 3.064410
F -13.264363 0.269417 3.314478
C -13.150207 1.981397 4.921700
F -12.313899 2.812977 5.589052
F -13.849640 1.296466 5.860389
C -3.089509 -3.438276 -0.347305
C -3.279453 -4.700903 -0.789948
H -6.853592 -1.949831 0.196841
H -5.904912 -1.731408 1.695980
H -13.860540 2.589942 4.358032
H -4.297031 -5.078424 -0.856831
O -1.410467 -6.302006 2.817713
C -1.655990 -6.417097 1.626833
O -2.837024 -6.882598 1.155745
C -3.121000 -8.265969 1.468686
C -2.825779 -9.127863 0.236730
F -1.471760 -9.076084 0.025677
F -3.369904 -8.545823 -0.870556
C -3.245747 -10.591471 0.311949
F -2.591779 -11.179427 1.360423
F -2.770454 -11.230841 -0.803900
C -4.732880 -10.889637 0.437984
F -4.875935 -12.248216 0.481338
F -5.192665 -10.437267 1.634535
C -5.581572 -10.305668 -0.679430
F -5.608952 -8.955251 -0.521149
F -5.009627 -10.537873 -1.884285
C -7.000262 -10.849952 -0.654762
F -6.958671 -12.218617 -0.675554
F -7.595317 -10.523090 0.525707
C -7.878184 -10.410900 -1.820843
F -9.078401 -11.056385 -1.697004
F -7.343184 -10.864837 -2.989781
C -8.118670 -8.916928 -1.907717
F -8.505573 -8.421206 -0.700796
F -6.961773 -8.263465 -2.214213
C -9.157936 -8.559454 -2.954412
F -8.782439 -8.987917 -4.185070
F -10.357596 -9.129150 -2.692036
C -0.714591 -6.141461 0.496247
C 0.615531 -5.951286 0.657486
H -4.178694 -8.306697 1.743004
H -2.500521 -8.589206 2.307782
H -9.302675 -7.476913 -3.003072
H 1.168846 -5.786196 -0.274110
O 1.827727 -3.037409 3.890849
C 2.926822 -3.570050 3.810981
O 3.891040 -3.534850 4.772633
C 3.750931 -2.437770 5.695379
C 5.119162 -2.016264 6.216324
F 5.458338 -2.795777 7.278958
F 6.053953 -2.261754 5.256541
C 5.136512 -0.541545 6.603479
F 4.796809 0.211799 5.516514
F 4.155342 -0.309624 7.519923
C 6.480046 -0.110283 7.143852
F 6.635216 -0.566721 8.417232
F 7.484750 -0.701307 6.428532
C 6.731182 1.391970 7.089706
F 6.716777 1.820292 5.793600
F 8.014541 1.604617 7.525541
C 5.793907 2.256679 7.902451
F 5.898183 1.921815 9.219481
F 4.497825 1.979566 7.559903
C 5.997409 3.758831 7.723108
F 5.107636 4.401723 8.534226
F 5.631271 4.122727 6.453849
C 7.398188 4.269139 7.979938
F 7.880422 3.790742 9.155696
F 8.238020 3.823644 6.999981
C 7.430572 5.789160 7.965428
F 6.692215 6.313652 8.978661
F 8.702304 6.234663 8.160028
C 3.458791 -4.226929 2.559987
C 4.708902 -3.832871 2.229190
H 3.101098 -2.760115 6.514690
H 3.287806 -1.593484 5.172299
H 7.074085 6.204261 7.018707
H 5.234843 -3.213231 2.953768
O 7.324926 -0.779072 3.277399
C 7.473609 -1.799994 2.611911
O 8.278492 -2.835720 2.949340
C 9.212262 -2.523547 3.984455
C 9.683051 -3.692211 4.840860
F 10.930804 -3.328948 5.300295
F 8.923506 -3.766118 5.966688
C 9.816034 -5.058619 4.180899
F 10.520163 -5.864323 5.045509
F 10.626806 -4.937303 3.080913
C 8.562493 -5.835291 3.784281
F 8.973530 -7.071194 3.385260
F 7.973792 -5.296253 2.681709
C 7.540030 -5.940725 4.897470
F 7.000219 -4.688642 5.053282
F 8.147734 -6.227298 6.077064
C 6.383667 -6.901639 4.667428
F 5.777830 -6.636210 3.481015
F 5.435453 -6.619458 5.625161
C 6.744942 -8.375171 4.777962
F 7.567327 -8.744686 3.767187
F 7.449415 -8.586903 5.925237
C 5.500052 -9.244023 4.768297
F 4.785062 -9.052428 3.622203
F 4.653402 -8.901002 5.780399
C 5.850489 -10.713825 4.898137
F 6.507580 -10.960160 6.057953
F 6.670075 -11.116398 3.895230
C 6.994130 -1.952625 1.210657
C 7.213558 -0.920579 0.364547
H 8.839511 -1.750580 4.667661
H 10.092089 -2.099453 3.483044
H 4.956149 -11.340053 4.873615
H 6.926447 -1.012905 -0.677742
O 2.222831 8.145300 -4.771615
C 1.904551 7.072115 -4.277985
O 2.344440 5.859578 -4.711588
C 2.735612 5.819801 -6.107272
C 1.484442 5.603016 -6.967414
F 0.528125 6.498744 -6.603696
F 0.973139 4.372563 -6.673344
C 1.787210 5.713738 -8.453248
F 2.721809 4.776782 -8.777414
F 2.359974 6.920909 -8.719555
C 0.522882 5.555061 -9.286110
F -0.081885 4.369524 -9.013932
F -0.354363 6.527189 -8.931978
C 0.831917 5.657828 -10.762505
F 1.172061 6.939216 -11.074978
F 1.972359 4.925692 -11.002364
C -0.210292 5.127771 -11.732615
F 0.431082 5.135986 -12.959548
F -0.445496 3.809633 -11.487692
C -1.523153 5.872125 -11.944600
F -2.002199 5.483155 -13.174001
F -1.280398 7.205805 -12.064251
C -2.621188 5.606226 -10.931897
F -2.768734 4.269702 -10.710566
F -2.321853 6.131893 -9.717468
C -3.944153 6.200262 -11.397014
F -3.821394 7.524685 -11.682293
F -4.391910 5.597844 -12.528177
C 0.809539 6.904015 -3.268919
C 0.772085 5.765622 -2.550353
H 3.282111 6.730643 -6.374718
H 3.427257 4.976041 -6.212477
H -4.714098 6.096075 -10.629167
H 1.669566 5.149828 -2.538957
O -1.738766 0.836212 -2.168892
C -1.386628 2.004372 -2.235204
O -0.967814 2.597403 -3.382497
C -0.424918 1.696527 -4.380021
C -1.449824 1.034019 -5.299986
F -2.232542 2.005155 -5.849859
F -2.299779 0.251460 -4.585062
C -0.836014 0.211080 -6.434765
F -0.107731 1.024639 -7.255663
F -1.838736 -0.289877 -7.211288
C 0.049255 -0.910978 -5.924700
F 1.176781 -0.365015 -5.393119
F -0.552408 -1.563722 -4.895021
C 0.414273 -1.901343 -7.017566
F 0.985534 -1.257335 -8.065069
F -0.719242 -2.484486 -7.490714
C 1.336097 -2.985237 -6.489487
F 0.705374 -3.682467 -5.500511
F 2.414313 -2.405299 -5.879690
C 1.847691 -3.955652 -7.544397
F 2.595294 -3.251798 -8.448411
F 2.735954 -4.801667 -6.935427
C 0.807044 -4.782127 -8.286019
F 0.011570 -3.974758 -9.035474
F 1.443341 -5.589013 -9.187806
C -0.039457 -5.641844 -7.357177
F 0.737034 -6.471395 -6.622827
F -0.880172 -6.431434 -8.076371
C -1.086676 2.886928 -1.020737
C -1.438550 2.278887 0.131248
H 0.179295 0.952944 -3.855926
H 0.262571 2.304889 -4.979652
H -0.656525 -5.046081 -6.686242
H -2.151920 1.456998 0.000905
O 1.484261 1.531989 4.231924
C 0.340455 1.160444 4.421675
O -0.319500 1.102989 5.618244
C 0.438970 1.029417 6.842543
C 0.631537 -0.435359 7.274138
F 1.360085 -1.031353 6.291768
F 1.416444 -0.474508 8.384598
C -0.668580 -1.216611 7.520132
F -1.547848 -1.000113 6.505980
F -1.284654 -0.737239 8.633325
C -0.410436 -2.714282 7.638292
F 0.259751 -3.147745 6.532282
F 0.404585 -2.969110 8.693918
C -1.715387 -3.497771 7.748544
F -2.512608 -3.208211 6.685161
F -2.410131 -3.119135 8.851045
C -1.465420 -4.999544 7.755440
F -0.885618 -5.375640 6.580502
F -0.549965 -5.294610 8.725904
C -2.697857 -5.862903 7.995556
F -3.221408 -5.552421 9.222644
F -2.283439 -7.166429 8.113619
C -3.804934 -5.805982 6.953369
F -4.801716 -6.662920 7.349854
F -4.376511 -4.573596 6.932367
C -3.351689 -6.206725 5.555119
F -4.429255 -6.311523 4.727885
F -2.772471 -7.437188 5.571572
C -0.557269 0.547657 3.394697
C -0.809919 -0.739959 3.722813
H 1.413444 1.519023 6.727671
H -0.110621 1.575358 7.613569
H -2.661436 -5.487969 5.109407
H -0.246084 -1.202505 4.537345
O 1.118701 -2.464196 1.019068
C 0.122281 -1.817676 0.760560
O 0.103651 -0.703676 -0.023462
C 1.053178 -0.804589 -1.096475
C 2.245566 0.131184 -0.979215
F 2.911710 -0.076915 0.182001
F 1.810977 1.415356 -0.972560
C 3.137706 -0.121422 -2.187571
F 2.346355 -0.034301 -3.298295
F 3.564158 -1.415430 -2.153593
C 4.298885 0.822692 -2.331370
F 5.116075 0.777684 -1.251064
F 3.843627 2.104860 -2.413099
C 5.070746 0.458459 -3.584400
F 4.228814 0.497349 -4.662092
F 5.508579 -0.833354 -3.490564
C 6.253131 1.366576 -3.837306
F 5.847464 2.662170 -3.845442
F 7.159447 1.249413 -2.832649
C 6.891525 1.014072 -5.166580
F 7.201797 -0.320706 -5.205836
F 5.990267 1.188933 -6.177212
C 8.150558 1.795795 -5.480144
F 9.148119 1.448650 -4.618293
F 8.596780 1.390407 -6.714717
C 7.978707 3.303642 -5.503489
F 6.785600 3.649202 -6.064280
F 7.991716 3.825729 -4.248732
C -1.256586 -2.335245 0.907244
C -1.754230 -2.854315 -0.223592
H 1.401767 -1.839601 -1.216463
H 0.486196 -0.576529 -2.005880
H 8.759468 3.778975 -6.100611
H -1.152102 -2.897700 -1.142563
O -1.567352 -6.046488 -3.702337
C -2.448054 -5.693501 -2.935047
O -3.692458 -5.259366 -3.297563
C -3.864364 -5.001206 -4.691361
C -3.287612 -3.637978 -5.088818
F -2.278013 -3.286629 -4.244316
F -2.675579 -3.813576 -6.302323
C -4.302911 -2.512585 -5.215057
F -3.694025 -1.494845 -5.892140
F -5.329002 -2.924517 -6.010405
C -4.824942 -1.984182 -3.883361
F -5.414279 -2.987445 -3.174617
F -3.789021 -1.562870 -3.114022
C -5.820358 -0.857798 -4.136902
F -5.283724 0.037453 -5.002275
F -6.917765 -1.370654 -4.762415
C -6.242223 -0.120674 -2.878281
F -6.746220 -1.008737 -1.978572
F -5.162410 0.453942 -2.290707
C -7.285161 0.944250 -3.203712
F -6.880880 1.672098 -4.290559
F -8.441611 0.334069 -3.593471
C -7.565169 1.933034 -2.082788
F -6.458247 2.690177 -1.822381
F -8.510378 2.833141 -2.505150
C -8.054532 1.306623 -0.799690
F -9.082246 0.455250 -1.047173
F -7.072785 0.582446 -0.208359
C -2.294012 -5.547695 -1.445543
C -1.210478 -6.139547 -0.904949
H -3.401919 -5.803595 -5.280522
H -4.932250 -5.060125 -4.921345
H -8.400670 2.055565 -0.084635
H -0.543691 -6.696882 -1.571618
O 1.708208 -5.928857 4.203581
C 1.380792 -6.430696 3.133018
O 1.045580 -7.749653 2.996465
C 1.233574 -8.436553 4.255468
C 0.782604 -9.894426 4.229890
F -0.567833 -9.947876 4.154737
F 1.252962 -10.515291 3.118329
C 1.293301 -10.597629 5.484597
F 0.996887 -9.863973 6.591284
F 2.669282 -10.573804 5.399355
C 0.858285 -12.046353 5.675424
F 1.917720 -12.687105 6.294211
F 0.726505 -12.692889 4.493223
C -0.336554 -12.285988 6.594369
F -0.420837 -13.628937 6.856138
F -0.051254 -11.724362 7.814381
C -1.712967 -11.800166 6.183211
F -2.580709 -12.021664 7.216717
F -1.700517 -10.450562 6.035172
C -2.264873 -12.481838 4.945537
F -1.510015 -12.127985 3.875039
F -2.116906 -13.835181 5.058815
C -3.733979 -12.161211 4.699279
F -4.133859 -12.790144 3.553277
F -4.504488 -12.677858 5.695818
C -4.004214 -10.673653 4.580878
F -5.278234 -10.444736 4.171472
F -3.205581 -10.123462 3.636851
C 1.497342 -5.735848 1.818488
C 2.516772 -4.850495 1.632037
H 0.653224 -7.919085 5.029353
H 2.303361 -8.390576 4.497136
H -3.873894 -10.136388 5.522183
H 2.617230 -4.408935 0.642374
O 5.216424 -6.338951 0.416300
C 5.277718 -5.170268 0.086444
O 5.206682 -4.688933 -1.190197
C 5.207181 -5.630233 -2.284903
C 6.059601 -5.077669 -3.437799
F 5.671609 -5.676533 -4.593677
F 5.772570 -3.753784 -3.591160
C 7.551901 -5.271737 -3.221696
F 7.844710 -6.602825 -3.309343
F 7.865516 -4.927781 -1.927571
C 8.454694 -4.464894 -4.143072
F 9.745720 -4.788786 -3.838810
F 8.342421 -3.137438 -3.836831
C 8.202287 -4.652730 -5.627660
F 7.006794 -4.103171 -5.945781
F 8.100721 -5.976113 -5.920563
C 9.328143 -4.022576 -6.444800
F 9.588691 -2.757622 -6.026952
F 10.474115 -4.729040 -6.182002
C 9.107027 -4.034970 -7.949603
F 10.326083 -3.944662 -8.566488
F 8.614928 -5.254548 -8.318070
C 8.218799 -2.923893 -8.500625
F 7.973100 -3.178449 -9.823209
F 7.001631 -2.936124 -7.901689
C 8.831515 -1.533971 -8.378886
F 10.044345 -1.475797 -8.980913
F 8.046280 -0.616440 -9.011091
C 5.500961 -4.013966 1.018942
C 6.506569 -3.200525 0.642132
H 4.168826 -5.722639 -2.621231
H 5.551119 -6.626848 -1.984127
H 8.938852 -1.195340 -7.350247
H 7.051227 -3.442806 -0.274243
O 5.895738 1.554632 1.204177
C 7.102137 1.542887 1.019235
O 7.908781 2.643815 1.066300
C 7.225201 3.909912 1.013646
C 7.156911 4.374151 -0.437399
F 6.558265 3.420531 -1.199621
F 8.432866 4.489064 -0.904193
C 6.430030 5.697098 -0.559063
F 5.145777 5.553538 -0.121703
F 7.001024 6.607570 0.281466
C 6.449108 6.208129 -1.987826
F 7.729527 6.342856 -2.423513
F 5.859853 5.304292 -2.820410
C 5.724826 7.540541 -2.084020
F 4.428711 7.392302 -1.684242
F 6.279174 8.438884 -1.226243
C 5.759537 8.080834 -3.503040
F 7.043210 8.209600 -3.932102
F 5.171333 7.180805 -4.342055
C 5.052409 9.421151 -3.578318
F 3.788129 9.304964 -3.083786
F 5.664409 10.320254 -2.758196
C 5.024543 9.947288 -5.004488
F 6.291046 10.242323 -5.412064
F 4.578804 8.994797 -5.868526
C 4.128080 11.165828 -5.086501
F 4.186686 11.706433 -6.334135
F 4.544467 12.136354 -4.235288
C 7.895777 0.327775 0.673228
C 9.169402 0.407426 0.398591
H 6.231329 3.854570 1.477573
H 7.831602 4.607997 1.601916
H 3.081027 10.933928 -4.870014
H 10.210560 0.534487 0.212680
