480
Molecule ID: homopoly_113159
C 0.328438 0.359012 9.764820
C -0.402540 -0.924566 10.141558
C -1.639766 -1.159991 9.273894
C -1.297653 -1.708831 7.890286
N -1.384021 -3.152040 7.835457
C -0.800410 -3.828801 6.805031
O 0.094610 -3.401883 6.093188
O -1.433425 -5.018323 6.617701
C -1.096435 -5.634332 5.363289
C -1.900896 -6.914239 5.154586
O -1.229452 -8.058057 5.724614
C -0.365008 -8.790031 4.958136
O 0.064900 -9.886275 5.286851
C 0.093793 -8.178061 3.725757
C 0.457211 -7.624006 2.603799
H 1.186799 0.513051 10.427205
H 0.691196 0.331996 8.733444
H -0.332529 1.227065 9.865813
H 0.285219 -1.773215 10.076434
H -0.716062 -0.842588 11.188535
H -2.179757 -0.209839 9.162348
H -2.319483 -1.848123 9.791773
H -2.020272 -1.329384 7.157965
H -0.306305 -1.384463 7.555381
H -2.229907 -3.601962 8.160778
H -1.363611 -4.932759 4.564748
H -0.022917 -5.845249 5.348142
H -2.059806 -7.102464 4.091472
H -2.892748 -6.835866 5.617254
H 0.990614 -6.681279 2.671196
C -1.992431 -3.797121 -9.976742
C -1.460063 -5.219664 -9.902531
C -1.197028 -5.654139 -8.460598
C -0.599900 -7.058809 -8.419566
N -0.435163 -7.534477 -7.065531
C -1.334718 -8.361711 -6.464468
O -2.390013 -8.744112 -6.939233
O -0.851254 -8.719534 -5.253219
C -1.670799 -9.638284 -4.508595
C -0.809017 -10.251946 -3.407877
O -0.174191 -9.216250 -2.647129
C -0.954197 -8.652434 -1.696368
O -2.062595 -9.026809 -1.346485
C -0.312608 -7.407722 -1.182693
C -0.235933 -6.470221 -2.160961
H -2.188842 -3.521032 -11.017838
H -1.271106 -3.084427 -9.562804
H -2.928711 -3.700357 -9.415967
H -2.184730 -5.899233 -10.366497
H -0.538333 -5.288291 -10.493015
H -2.132546 -5.627827 -7.888287
H -0.512191 -4.948108 -7.975265
H 0.395333 -7.064155 -8.879304
H -1.233826 -7.759593 -8.973640
H 0.392814 -7.303324 -6.536646
H -2.055104 -10.436917 -5.155164
H -2.506294 -9.074879 -4.079458
H -0.007522 -10.834560 -3.866464
H -1.377979 -10.929784 -2.761966
H -0.498165 -6.736108 -3.188397
C 11.123078 -2.886104 -7.121507
C 10.471008 -3.680562 -6.005739
C 9.057936 -4.119536 -6.380022
C 8.400356 -4.867537 -5.225530
N 7.086286 -5.356927 -5.593256
C 6.585562 -6.508901 -5.058793
O 7.212710 -7.304118 -4.376968
O 5.267562 -6.636084 -5.386320
C 4.633071 -7.756581 -4.749626
C 3.161917 -7.824559 -5.170574
O 2.474624 -6.563277 -5.082526
C 2.343151 -6.045724 -3.835823
O 2.711216 -6.572312 -2.799015
C 1.682106 -4.699044 -3.880007
C 2.041799 -3.890254 -4.908662
H 12.071420 -2.463843 -6.772144
H 11.332764 -3.529528 -7.981735
H 10.482799 -2.060009 -7.446053
H 10.441675 -3.072141 -5.094280
H 11.085612 -4.560429 -5.780255
H 9.089430 -4.765343 -7.266376
H 8.449212 -3.244982 -6.644100
H 8.265729 -4.201771 -4.365366
H 9.026562 -5.705130 -4.901897
H 6.404471 -4.729907 -5.983875
H 4.718697 -7.639026 -3.665027
H 5.131184 -8.688294 -5.042802
H 2.617343 -8.578465 -4.592706
H 3.108359 -8.116619 -6.222697
H 2.733554 -4.245212 -5.674072
C -2.674778 3.819408 -4.252520
C -1.624194 2.720750 -4.345833
C -2.090002 1.385664 -3.769031
C -2.235603 1.361538 -2.249027
N -0.982670 1.270474 -1.542205
C -0.271782 0.110495 -1.459546
O -0.465909 -0.901583 -2.120043
O 0.709592 0.269985 -0.533494
C 1.514825 -0.884007 -0.246864
C 2.881803 -0.804199 -0.916755
O 2.786218 -0.973191 -2.336622
C 2.474216 0.160652 -3.034640
O 2.287253 1.246586 -2.511298
C 2.497736 -0.140207 -4.520715
C 2.494462 0.823814 -5.473238
H -2.895017 4.082121 -3.214453
H -3.607828 3.512659 -4.735556
H -2.315222 4.726884 -4.752940
H -1.387939 2.570049 -5.406612
H -0.697996 3.040072 -3.858238
H -1.370087 0.625119 -4.082350
H -3.052198 1.121577 -4.223679
H -2.833078 0.494878 -1.961624
H -2.750220 2.253296 -1.878465
H -0.774502 1.912682 -0.793269
H 1.660574 -0.905673 0.831335
H 1.011070 -1.806499 -0.537146
H 3.396104 0.137466 -0.685719
H 3.518525 -1.613533 -0.548066
H 2.486715 0.501452 -6.520978
C -6.066151 7.733082 -0.112838
C -5.688025 8.843389 0.853911
C -4.735606 9.884111 0.256858
C -3.263936 9.471880 0.231262
N -2.927057 8.575470 -0.847044
C -1.690481 7.999926 -0.894012
O -0.902873 7.923130 0.039133
O -1.431158 7.577352 -2.159554
C -0.083977 7.109058 -2.396035
C 0.055660 5.636344 -2.015636
O 1.367009 5.098222 -2.244052
C 1.686774 4.875723 -3.548453
O 0.946485 5.101653 -4.493493
C 3.030609 4.229358 -3.677602
C 4.093094 4.542718 -2.893625
H -6.779809 7.052549 0.361922
H -5.198853 7.147002 -0.421152
H -6.540833 8.144087 -1.008052
H -6.613062 9.356198 1.153963
H -5.262884 8.417912 1.771265
H -5.072328 10.175422 -0.743983
H -4.806802 10.781872 0.887421
H -2.648219 10.367885 0.088501
H -2.958707 9.031902 1.186797
H -3.299959 8.765428 -1.767740
H 0.124794 7.262519 -3.459192
H 0.646177 7.727914 -1.861763
H -0.151776 5.516263 -0.948817
H -0.698299 5.029044 -2.527919
H 4.980628 3.932812 -3.036152
C -0.089723 7.475687 7.746794
C -0.057454 5.964317 7.577423
C 1.144894 5.494259 6.761532
C 2.452428 5.509262 7.551502
N 3.583207 5.372450 6.665152
C 4.161310 6.456386 6.074936
O 3.986187 7.618095 6.398408
O 4.960713 6.037349 5.065600
C 5.490776 7.093532 4.247789
C 4.480044 7.451765 3.152919
O 4.302953 6.357024 2.236985
C 5.341602 6.162503 1.383984
O 6.343237 6.853599 1.269301
C 5.164995 4.856096 0.720103
C 5.545767 3.850374 1.547457
H 0.795533 7.847420 8.268990
H -0.145261 7.973475 6.772534
H -0.969523 7.772980 8.328570
H -0.974337 5.660931 7.058933
H -0.065460 5.474436 8.558741
H 1.231653 6.105938 5.855988
H 0.965939 4.468960 6.413699
H 2.478577 4.672544 8.256049
H 2.566730 6.434433 8.122486
H 3.786929 4.482949 6.228557
H 6.426326 6.719961 3.822035
H 5.744359 7.976057 4.845829
H 4.778869 8.343278 2.599869
H 3.494070 7.647650 3.586142
H 5.909012 4.084006 2.550696
C 2.308394 -5.034445 12.062078
C 3.690491 -4.399129 12.125615
C 3.736743 -2.988689 11.535908
C 3.495550 -2.963607 10.032127
N 3.544265 -1.613646 9.525256
C 3.650324 -1.374507 8.187841
O 3.955672 -2.197990 7.342610
O 3.339248 -0.073026 7.946585
C 3.265676 0.235105 6.552276
C 3.032394 1.728998 6.356013
O 2.797617 2.007574 4.968200
C 3.892085 2.037537 4.182175
O 5.044051 2.090511 4.594911
C 3.558678 1.899105 2.724659
C 2.335028 1.980028 2.157016
H 2.315609 -6.004466 12.568533
H 1.561755 -4.403824 12.554902
H 1.989394 -5.203864 11.029261
H 4.409247 -5.044842 11.607247
H 4.003600 -4.351588 13.175331
H 4.723984 -2.556204 11.749031
H 3.003195 -2.350467 12.047480
H 2.507834 -3.360676 9.777705
H 4.245273 -3.571069 9.510324
H 3.092036 -0.872963 10.041304
H 2.432454 -0.318834 6.109503
H 4.188035 -0.069674 6.038659
H 3.865389 2.315385 6.755153
H 2.142905 2.043097 6.910904
H 2.277969 1.875504 1.071521
C -11.121806 -1.888559 4.040615
C -10.919205 -0.842738 5.128024
C -9.450118 -0.462944 5.329351
C -8.873345 0.344748 4.168125
N -7.455391 0.549922 4.329196
C -6.891492 1.715429 4.726426
O -7.489123 2.740758 5.010840
O -5.545053 1.548517 4.789150
C -4.826175 2.704507 5.240519
C -3.337124 2.386239 5.246652
O -2.796094 2.559022 3.925533
C -1.775952 3.448813 3.814990
O -1.384856 4.229752 4.669328
C -1.197276 3.385506 2.447687
C -1.938866 3.846617 1.413651
H -12.179476 -2.173428 3.983492
H -10.540314 -2.792147 4.251085
H -10.829805 -1.513970 3.055874
H -11.513399 0.048101 4.898479
H -11.304937 -1.249290 6.071362
H -8.857779 -1.374188 5.478647
H -9.356545 0.118524 6.253584
H -8.996572 -0.181134 3.218601
H -9.378596 1.315379 4.088862
H -6.798435 -0.200121 4.138117
H -5.146095 2.922745 6.267797
H -5.041664 3.555300 4.586514
H -2.830998 3.020197 5.977065
H -3.164755 1.341986 5.528038
H -1.503983 3.891696 0.414952
C 2.567354 -12.522469 -5.423131
C 2.713393 -12.987376 -3.981118
C 2.873542 -11.800729 -3.030184
C 2.874744 -12.196453 -1.555513
N 1.607235 -12.725995 -1.108884
C 1.373753 -12.817043 0.238984
O 2.229864 -12.791243 1.106390
O 0.032644 -12.820709 0.446100
C -0.409779 -12.465439 1.771044
C -1.508792 -11.408064 1.640196
O -1.064912 -10.053676 1.873722
C -0.147226 -9.540460 1.022108
O 0.432250 -10.128426 0.127554
C 0.059115 -8.083787 1.277442
C 0.004576 -7.207453 0.237956
H 3.412969 -11.899753 -5.729160
H 1.653555 -11.931469 -5.550910
H 2.504913 -13.381452 -6.101268
H 1.829301 -13.578603 -3.716684
H 3.584669 -13.648266 -3.900870
H 2.074237 -11.075076 -3.207741
H 3.816895 -11.288997 -3.262677
H 3.091280 -11.306604 -0.956321
H 3.653367 -12.937772 -1.346553
H 0.771247 -12.424644 -1.584452
H -0.830788 -13.376339 2.206920
H 0.404084 -12.109637 2.411164
H -2.004453 -11.441208 0.666824
H -2.268694 -11.590059 2.407934
H 0.267101 -6.177204 0.483957
C -5.318248 -2.240970 6.566163
C -6.031092 -3.043052 5.489865
C -5.631554 -4.520495 5.539668
C -6.332876 -5.346255 4.461313
N -5.929474 -4.971348 3.124029
C -4.732423 -5.338366 2.594480
O -3.921202 -6.081281 3.120580
O -4.556046 -4.716143 1.407119
C -3.315826 -5.018289 0.754853
C -3.220401 -4.198456 -0.525343
O -2.175555 -4.692500 -1.373608
C -0.907049 -4.316261 -1.068718
O -0.563365 -3.557497 -0.175493
C 0.008344 -5.045491 -2.002880
C 0.811356 -4.278680 -2.774072
H -4.233292 -2.333395 6.460591
H -5.593610 -2.584043 7.569818
H -5.576741 -1.179116 6.489789
H -5.781259 -2.614465 4.512149
H -7.113740 -2.943827 5.620040
H -4.541825 -4.603544 5.429104
H -5.885432 -4.932008 6.524362
H -6.102580 -6.406410 4.604687
H -7.419867 -5.225796 4.521096
H -6.449013 -4.272292 2.614115
H -3.276268 -6.089724 0.527359
H -2.478029 -4.774103 1.419305
H -3.083094 -3.131417 -0.316409
H -4.153977 -4.283059 -1.089836
H 0.775988 -3.201874 -2.606249
C -8.111099 -4.063810 -2.684725
C -8.992736 -2.828558 -2.669409
C -8.555392 -1.710758 -3.620145
C -7.139102 -1.195965 -3.385153
N -6.136396 -2.020179 -4.022283
C -4.818143 -1.911375 -3.694415
O -4.382268 -1.318370 -2.720087
O -4.071696 -2.531842 -4.640945
C -2.654123 -2.443876 -4.431560
C -1.933157 -3.038563 -5.635179
O -0.531835 -3.220246 -5.384469
C 0.247556 -2.109384 -5.420886
O -0.129965 -0.988469 -5.728560
C 1.665905 -2.481771 -5.093491
C 2.629370 -1.567118 -4.850999
H -8.574230 -4.861958 -2.094817
H -7.968185 -4.438566 -3.703561
H -7.130343 -3.860865 -2.245368
H -10.013691 -3.121487 -2.937473
H -9.041023 -2.436756 -1.648666
H -8.672760 -2.040190 -4.659680
H -9.247682 -0.873206 -3.479630
H -7.033308 -0.199470 -3.823838
H -6.918786 -1.101980 -2.318090
H -6.302872 -2.391909 -4.946764
H -2.381348 -2.981327 -3.516968
H -2.358203 -1.398878 -4.307985
H -2.346739 -4.030905 -5.849774
H -2.096021 -2.445996 -6.544508
H 3.630029 -1.932537 -4.604756
C -0.885072 12.509122 -4.225834
C 0.278223 12.415906 -5.202984
C 0.783963 10.982422 -5.384976
C -0.089767 10.201020 -6.366547
N 0.181197 8.785364 -6.427493
C 1.388330 8.283202 -6.826231
O 2.454768 8.874745 -6.840855
O 1.200161 7.003841 -7.226562
C 2.369436 6.352531 -7.748380
C 2.055162 4.868768 -7.912966
O 2.441678 4.175857 -6.713442
C 1.730446 3.057200 -6.418544
O 0.804697 2.599925 -7.074011
C 2.436877 2.300372 -5.330350
C 3.150304 2.926076 -4.368860
H -1.728441 11.887272 -4.537608
H -1.238421 13.542598 -4.161386
H -0.577508 12.194539 -3.221630
H -0.021073 12.841307 -6.168853
H 1.097309 13.038066 -4.823969
H 0.830058 10.465274 -4.418164
H 1.809196 11.028371 -5.770794
H -1.144016 10.280781 -6.083452
H 0.016750 10.607165 -7.382059
H -0.568047 8.192700 -6.751461
H 2.577262 6.783630 -8.732291
H 3.225505 6.491112 -7.078146
H 0.992434 4.718697 -8.137331
H 2.663791 4.449087 -8.721620
H 3.856635 2.286484 -3.834503
C 6.496525 10.514932 6.679725
C 7.432490 10.900589 5.542750
C 6.875763 12.022585 4.661651
C 5.701518 11.618941 3.775016
N 6.105536 10.743541 2.695866
C 5.632270 10.862181 1.421748
O 4.957501 11.779649 0.994908
O 6.036322 9.787551 0.698533
C 5.624125 9.747902 -0.683467
C 4.303782 8.996215 -0.858433
O 4.530101 7.564710 -0.818805
C 3.951049 6.837470 -1.794590
O 3.271513 7.291204 -2.707069
C 4.257058 5.376846 -1.692143
C 4.724535 4.657518 -0.646517
H 6.964215 9.749897 7.309238
H 5.551971 10.108007 6.310364
H 6.274771 11.381254 7.311863
H 7.672283 10.014733 4.943113
H 8.375700 11.247133 5.984074
H 6.562080 12.852850 5.305774
H 7.685836 12.401309 4.026669
H 4.921030 11.102281 4.340957
H 5.246714 12.522084 3.351405
H 6.602417 9.882228 2.888695
H 5.535145 10.765861 -1.083734
H 6.428004 9.246167 -1.235002
H 3.863332 9.299086 -1.812586
H 3.603257 9.230935 -0.050989
H 4.801583 3.586590 -0.869866
C 6.701073 8.007492 -8.078699
C 7.695847 7.151521 -7.307520
C 6.991891 6.049277 -6.519274
C 7.979622 5.209994 -5.708996
N 7.284627 4.247685 -4.883100
C 7.943139 3.276808 -4.187144
O 9.126733 2.992969 -4.301258
O 7.079953 2.697424 -3.315142
C 7.619656 1.623653 -2.521535
C 8.262630 2.149885 -1.233182
O 7.277733 2.694067 -0.323728
C 6.571971 1.769181 0.376124
O 6.686372 0.557743 0.238611
C 5.562627 2.420366 1.280413
C 4.672224 1.570245 1.837410
H 7.222038 8.819916 -8.593780
H 5.959005 8.448892 -7.404726
H 6.172211 7.411197 -8.830540
H 8.417283 6.708739 -8.003611
H 8.259283 7.794133 -6.622066
H 6.430033 5.399191 -7.201789
H 6.255331 6.499411 -5.842530
H 8.669675 4.675590 -6.365675
H 8.574085 5.843591 -5.042397
H 6.403270 4.521281 -4.484481
H 8.338105 1.029480 -3.102362
H 6.772604 0.965617 -2.294039
H 8.967963 2.958258 -1.457687
H 8.827700 1.354631 -0.727304
H 4.758554 0.498783 1.663946
C -7.473334 -1.817462 0.842390
C -5.968286 -1.794854 0.642723
C -5.353161 -0.450162 1.017383
C -3.833980 -0.450503 0.876520
N -3.175870 -1.255671 1.875976
C -1.831084 -1.162878 2.077381
O -1.111075 -0.310342 1.592651
O -1.427043 -2.173490 2.884416
C -0.004783 -2.319212 3.063032
C 0.586156 -1.305830 4.048993
O 1.065544 -0.137234 3.347917
C 0.479602 1.049773 3.666880
O -0.360878 1.197446 4.543139
C 1.004194 2.115176 2.748363
C 0.207032 3.080829 2.234575
H -7.877909 -2.778080 0.507670
H -7.719792 -1.707147 1.902216
H -7.962608 -1.018012 0.277694
H -5.533785 -2.573133 1.266632
H -5.732663 -2.043527 -0.398279
H -5.774179 0.323633 0.365103
H -5.623505 -0.194449 2.047545
H -3.444198 0.570068 0.953800
H -3.532662 -0.828253 -0.105830
H -3.602151 -2.108674 2.220994
H 0.495204 -2.301046 2.092437
H 0.135669 -3.327653 3.466213
H 1.476017 -1.747568 4.508845
H -0.132825 -1.064574 4.838098
H 0.659689 3.728555 1.483010
C -9.595269 -0.231068 -7.895138
C -8.673982 0.772754 -7.219837
C -9.412696 2.070180 -6.888257
C -8.511078 3.139366 -6.276964
N -7.957758 2.745498 -5.000021
C -7.560287 3.698927 -4.100055
O -7.816490 4.890749 -4.158775
O -6.796996 3.114493 -3.145720
C -6.195674 4.035666 -2.223891
C -5.658234 3.270699 -1.019891
O -4.729015 4.098662 -0.304626
C -4.390653 3.620567 0.917598
O -4.876300 2.642021 1.467800
C -3.271043 4.406442 1.496858
C -3.359878 5.704630 1.572628
H -9.997656 0.165184 -8.832174
H -9.050195 -1.155371 -8.120031
H -10.438937 -0.485583 -7.244803
H -7.825420 0.986382 -7.880496
H -8.269983 0.317333 -6.308890
H -10.244426 1.856796 -6.205428
H -9.851060 2.478201 -7.811238
H -7.672514 3.367263 -6.945802
H -9.088054 4.062655 -6.150300
H -7.353230 1.939727 -4.971010
H -5.382458 4.567959 -2.728412
H -6.921407 4.777448 -1.869844
H -5.147806 2.354232 -1.341642
H -6.502954 2.980594 -0.380431
H -3.418321 6.759395 1.684017
