624
Molecule ID: homopoly_637308
C 0.741705 -10.520911 -2.156902
O 1.118721 -10.138242 -3.481105
C 1.918308 -9.020755 -3.568443
C 2.052968 -8.028240 -2.595142
C 2.943249 -6.951712 -2.788795
C 3.180435 -6.020997 -1.709063
C 3.411691 -5.452004 -0.556556
C 3.600019 -3.978350 -0.359166
O 4.200032 -3.224824 -1.100004
O 3.151331 -3.662175 0.894752
C 3.845932 -2.615188 1.582848
C 3.297135 -2.492352 3.005976
C 4.086521 -1.569790 3.896199
C 4.735896 -2.078263 5.033328
C 5.471529 -1.237707 5.866666
C 5.549660 0.122510 5.576950
O 6.240485 0.985139 6.375316
C 4.900103 0.645092 4.466869
C 4.175167 -0.196575 3.628471
C 3.661817 -6.856767 -3.975167
C 3.519074 -7.830633 -4.959573
C 2.650587 -8.895466 -4.751940
O 2.525600 -9.825380 -5.743465
H 1.622340 -10.658762 -1.518178
H 0.032958 -9.805979 -1.725045
H 0.232223 -11.480110 -2.233529
H 1.480742 -8.081013 -1.674912
H 3.747203 -1.678690 1.022689
H 4.890839 -2.901575 1.675524
H 2.253252 -2.180941 2.983869
H 3.248915 -3.494663 3.445699
H 4.677910 -3.137461 5.270735
H 5.964369 -1.654391 6.742675
H 6.710597 0.469767 7.055148
H 4.951111 1.711669 4.259315
H 3.686684 0.237121 2.762717
H 4.364936 -6.046744 -4.122807
H 4.090180 -7.762804 -5.884515
H 1.833167 -10.431126 -5.411506
C 8.646443 -3.935022 5.566375
O 7.761386 -4.988507 5.947133
C 7.507468 -5.814518 4.874072
C 6.923899 -5.334997 3.683478
C 6.645023 -6.244601 2.654879
C 5.811607 -5.792437 1.479227
C 6.481091 -5.570517 0.289101
C 7.595359 -6.563511 -0.001818
O 8.776083 -6.278931 -0.080785
O 7.068658 -7.790627 -0.229987
C 8.067711 -8.833641 -0.352196
C 7.411253 -10.079918 -0.934590
C 6.665554 -10.886413 0.108240
C 7.364882 -11.657348 1.048815
C 6.677290 -12.431504 1.986161
C 5.283639 -12.451136 1.978777
O 4.650334 -13.277550 2.862734
C 4.572075 -11.670938 1.070302
C 5.259830 -10.889161 0.134261
C 6.961179 -7.607510 2.831067
C 7.550766 -8.064987 3.995919
C 7.798081 -7.166948 5.019793
O 8.310761 -7.654709 6.181320
H 9.265077 -3.686456 6.427453
H 8.077840 -3.049097 5.276864
H 9.322144 -4.245041 4.770594
H 6.619798 -4.301056 3.592541
H 8.856647 -8.494519 -1.030922
H 8.523250 -9.012155 0.630644
H 8.197253 -10.718949 -1.359022
H 6.740508 -9.802104 -1.754676
H 8.454837 -11.683681 1.042948
H 7.222987 -13.038108 2.702484
H 3.712136 -13.306097 2.629968
H 3.489517 -11.666943 1.067043
H 4.702174 -10.294421 -0.582164
H 6.666150 -8.351237 2.101077
H 7.740302 -9.130406 4.128355
H 8.052927 -6.985103 6.858084
C 10.938862 -2.132706 -6.372201
O 11.364629 -1.413720 -5.206562
C 10.847731 -1.998316 -4.081012
C 9.484794 -1.846357 -3.767164
C 8.902235 -2.487703 -2.649503
C 7.366524 -2.576096 -2.357198
C 6.408782 -2.100242 -3.241382
C 6.673847 -2.323379 -4.726942
O 6.925386 -1.413471 -5.508903
O 6.540484 -3.625010 -5.089448
C 6.750471 -3.801988 -6.504326
C 6.303229 -5.194336 -6.947674
C 5.706628 -5.319909 -8.329762
C 5.852943 -4.344200 -9.325734
C 5.227406 -4.494917 -10.563474
C 4.469059 -5.630783 -10.825288
O 3.844110 -5.702792 -12.033225
C 4.361976 -6.644287 -9.880356
C 4.993349 -6.488429 -8.640296
C 9.822434 -3.171682 -1.817162
C 11.190755 -3.271438 -2.073820
C 11.698274 -2.688675 -3.223784
O 13.025423 -2.793895 -3.528308
H 9.921613 -1.834620 -6.657482
H 10.994832 -3.213664 -6.216423
H 11.616498 -1.871967 -7.186188
H 8.904918 -1.245241 -4.455113
H 7.818567 -3.680649 -6.718858
H 6.198892 -3.025886 -7.038047
H 5.566168 -5.564540 -6.226392
H 7.150431 -5.883957 -6.881265
H 6.443359 -3.450583 -9.158187
H 5.326026 -3.724187 -11.322347
H 3.384952 -6.555350 -12.089044
H 3.788807 -7.549330 -10.066241
H 4.902231 -7.288505 -7.909414
H 9.481237 -3.733098 -0.955749
H 11.815670 -3.836929 -1.390326
H 13.493406 -3.108767 -2.735568
C 4.075849 -1.017821 -9.231528
O 3.363075 0.168621 -8.892126
C 3.944900 0.771899 -7.814464
C 3.498869 0.443420 -6.536891
C 4.013544 1.103120 -5.419669
C 3.688962 0.717697 -4.011801
C 2.779460 1.481169 -3.326416
C 3.097795 1.640730 -1.856265
O 3.091988 0.776150 -0.997860
O 3.448567 2.952854 -1.692984
C 3.910965 3.364563 -0.393759
C 3.580945 4.843876 -0.156994
C 4.454807 5.871125 -0.831677
C 5.811224 5.992276 -0.506641
C 6.581774 7.026926 -1.042052
C 5.997981 7.947213 -1.911158
O 6.792086 8.925113 -2.431273
C 4.652062 7.852509 -2.241221
C 3.889645 6.809058 -1.709546
C 4.995365 2.089873 -5.610229
C 5.433713 2.435718 -6.890749
C 4.896954 1.779423 -7.990984
O 5.297986 2.111480 -9.254691
H 4.843140 -0.794223 -9.982689
H 4.528462 -1.518445 -8.367429
H 3.359386 -1.720145 -9.673520
H 2.767350 -0.340438 -6.412775
H 4.980627 3.217014 -0.349758
H 3.422870 2.765565 0.379145
H 3.613691 5.046983 0.916786
H 2.557522 5.002230 -0.490726
H 6.278307 5.300883 0.188353
H 7.632734 7.116110 -0.785645
H 6.236764 9.481005 -3.003410
H 4.179574 8.551956 -2.930488
H 2.845321 6.740714 -1.984376
H 5.420867 2.610471 -4.755194
H 6.174703 3.228839 -6.993937
H 5.727246 2.978185 -9.200028
C 0.590278 4.834416 1.821692
O 0.349911 5.981142 1.030471
C 0.132579 5.792152 -0.308665
C -0.176770 4.572757 -0.918794
C -0.273215 4.495681 -2.316438
C -0.704965 3.224004 -2.998797
C -2.075385 3.067753 -3.151346
C -2.404101 2.262966 -4.390905
O -2.035620 2.574574 -5.510724
O -3.200503 1.224146 -4.118180
C -3.579485 0.434270 -5.260902
C -4.645374 1.079886 -6.142324
C -5.394589 0.142133 -7.066616
C -5.114623 -1.233002 -7.197303
C -5.791381 -2.022762 -8.128442
C -6.790488 -1.447085 -8.912841
O -7.468875 -2.159198 -9.849375
C -7.111511 -0.103752 -8.775037
C -6.413859 0.689006 -7.867778
C -0.018554 5.644909 -3.087549
C 0.208508 6.873849 -2.478814
C 0.248245 6.958116 -1.090903
O 0.434093 8.163986 -0.486222
H 0.793341 5.163608 2.845048
H -0.294523 4.194661 1.853546
H 1.459818 4.280402 1.466601
H -0.350817 3.678282 -0.337641
H -3.879974 -0.531686 -4.865305
H -2.701791 0.249224 -5.861906
H -4.161102 1.849632 -6.760605
H -5.361673 1.643383 -5.543257
H -4.345530 -1.713952 -6.599698
H -5.531030 -3.077800 -8.222703
H -7.017119 -3.017333 -9.975706
H -7.896658 0.331125 -9.394047
H -6.660401 1.742430 -7.790117
H -0.059210 5.615163 -4.176038
H 0.324312 7.768206 -3.094489
H 0.132030 8.854825 -1.101923
C -8.642416 1.054467 -4.733705
O -7.596452 0.094187 -4.635296
C -6.639006 0.244962 -3.676819
C -6.226273 1.440200 -3.100071
C -5.212256 1.450019 -2.101748
C -4.978527 2.697044 -1.293161
C -5.626951 2.786630 -0.046481
C -6.782477 1.762333 0.322225
O -7.365302 1.708117 1.400974
O -7.248795 1.022309 -0.712903
C -8.482028 0.329186 -0.508973
C -9.621724 1.273255 -0.887860
C -11.000986 0.661626 -0.803430
C -11.445272 -0.249571 -1.772305
C -12.749429 -0.742488 -1.736290
C -13.624114 -0.313992 -0.740091
O -14.913632 -0.746466 -0.790846
C -13.193813 0.552438 0.258742
C -11.877692 1.025842 0.230159
C -4.593286 0.250362 -1.712072
C -5.002378 -0.950845 -2.305308
C -5.987462 -0.932632 -3.287732
O -6.286747 -2.102293 -3.938977
H -9.582501 0.548205 -4.508859
H -8.685760 1.432467 -5.761500
H -8.564146 1.907067 -4.055833
H -6.721193 2.370939 -3.342319
H -8.465227 -0.545067 -1.164873
H -8.565771 -0.034258 0.514836
H -9.460655 1.667117 -1.896157
H -9.573168 2.162796 -0.256872
H -10.781364 -0.565238 -2.572574
H -13.101447 -1.418515 -2.511893
H -15.452746 -0.092494 -0.314386
H -13.862138 0.893698 1.048905
H -11.557984 1.699278 1.016377
H -3.835818 0.252382 -0.938284
H -4.527935 -1.883827 -2.023910
H -6.801698 -1.812306 -4.714791
C -7.068802 -1.657002 2.648876
O -5.863738 -1.665926 3.401834
C -5.192925 -0.474667 3.446880
C -5.757555 0.796660 3.418999
C -4.942864 1.959855 3.467077
C -5.542860 3.343913 3.525832
C -5.490165 3.968445 4.755515
C -6.069823 5.337313 4.887246
O -5.524469 6.358713 4.480559
O -7.298376 5.225131 5.441379
C -7.936350 6.466118 5.787602
C -9.368982 6.150595 6.254603
C -9.449762 5.250458 7.469547
C -10.301399 4.137665 7.464148
C -10.348806 3.274498 8.564317
C -9.550332 3.524473 9.680810
O -9.555350 2.706240 10.766806
C -8.717645 4.637556 9.712577
C -8.678499 5.501645 8.616259
C -3.562364 1.808883 3.570956
C -3.010248 0.541508 3.724167
C -3.817887 -0.576152 3.642110
O -3.231824 -1.796143 3.817558
H -7.863219 -1.091562 3.150935
H -7.404136 -2.694603 2.587629
H -6.904241 -1.299393 1.627758
H -6.837883 0.917152 3.428341
H -7.973576 7.115304 4.915434
H -7.373561 6.958301 6.596408
H -9.899464 7.082665 6.463155
H -9.890627 5.672750 5.406364
H -10.931652 3.930163 6.599269
H -11.003253 2.409628 8.526545
H -10.219971 2.013264 10.617028
H -8.113562 4.838063 10.588726
H -8.035921 6.379245 8.670743
H -2.924423 2.681899 3.609606
H -1.953161 0.393544 3.918337
H -3.969688 -2.426325 3.959016
C -6.275731 1.549131 11.950762
O -5.023497 0.917400 11.679852
C -4.125346 1.781121 11.112448
C -4.138906 2.012665 9.736686
C -3.146825 2.791861 9.129956
C -3.004648 3.018052 7.650595
C -1.850118 2.629368 7.027336
C -0.887501 1.710028 7.737168
O 0.011577 2.072891 8.478790
O -1.136455 0.426528 7.342118
C -0.372804 -0.533407 8.091955
C -0.296804 -1.832040 7.293577
C 0.200004 -2.997323 8.114809
C -0.690772 -3.994161 8.543740
C -0.241040 -5.061877 9.325993
C 1.106588 -5.134665 9.668059
O 1.600632 -6.153432 10.433155
C 2.005303 -4.162996 9.241851
C 1.557648 -3.097640 8.460884
C -2.194289 3.409302 9.969794
C -2.152201 3.159431 11.337133
C -3.119252 2.337859 11.896598
O -3.041543 2.110000 13.236927
H -6.178566 2.221379 12.810388
H -6.992462 0.754833 12.197845
H -6.672271 2.094218 11.086277
H -4.911346 1.534417 9.146347
H 0.642137 -0.173953 8.291830
H -0.894824 -0.684560 9.042962
H 0.351746 -1.689419 6.422771
H -1.269436 -2.076076 6.853665
H -1.740691 -3.936735 8.276854
H -0.958434 -5.804829 9.658147
H 0.878000 -6.777593 10.610416
H 3.050031 -4.235906 9.526804
H 2.272333 -2.345859 8.137089
H -1.428082 4.064711 9.555842
H -1.362543 3.594750 11.952290
H -3.897836 2.437707 13.577512
C -1.713356 -5.816355 -0.311556
O -1.600898 -6.834383 0.674881
C -0.312619 -7.297474 0.842395
C 0.839672 -6.501520 0.746241
C 2.104737 -7.107903 0.840639
C 3.372374 -6.299877 0.643912
C 4.377872 -6.316846 1.570976
C 3.947592 -6.940231 2.895208
O 3.935509 -8.158144 3.041815
O 3.270333 -6.020305 3.636331
C 2.442783 -6.571141 4.688204
C 1.499502 -5.513883 5.212124
C 0.175449 -5.362747 4.485853
C -0.050505 -4.310371 3.586345
C -1.300766 -4.166363 2.974361
C -2.330535 -5.058784 3.254298
O -3.565942 -4.938951 2.672328
C -2.116867 -6.109870 4.147713
C -0.867751 -6.259724 4.750930
C 2.181732 -8.506563 0.988905
C 1.036555 -9.274877 1.198075
C -0.194441 -8.659412 1.134425
O -1.306093 -9.431332 1.303544
H -1.287445 -6.130670 -1.268307
H -2.781768 -5.631563 -0.469360
H -1.267883 -4.881837 0.034736
H 0.761005 -5.428454 0.582800
H 3.120778 -6.909594 5.476618
H 1.880537 -7.443449 4.296746
H 1.272033 -5.707555 6.265078
H 2.016656 -4.539062 5.231309
H 0.720572 -3.597634 3.350850
H -1.451001 -3.340402 2.285573
H -3.485221 -4.262797 1.978145
H -2.917277 -6.801676 4.363245
H -0.717839 -7.069114 5.457096
H 3.135541 -9.007367 0.981188
H 1.118883 -10.342926 1.393789
H -2.046210 -8.792312 1.276630
C 11.043850 -4.226605 2.645464
O 10.452514 -2.952647 2.939999
C 9.309216 -2.645393 2.249675
C 8.584788 -3.537908 1.446448
C 7.454753 -3.147465 0.701524
C 6.844579 -4.158254 -0.258908
C 6.948904 -3.882975 -1.609770
C 6.916437 -5.094143 -2.520977
O 6.084018 -5.976083 -2.523131
O 8.042855 -5.089224 -3.274084
C 8.255162 -6.162784 -4.199787
C 8.836503 -7.358067 -3.473112
C 9.538640 -8.330370 -4.381838
C 10.921624 -8.224486 -4.588331
C 11.583562 -9.123399 -5.424258
C 10.847998 -10.123442 -6.061640
O 11.442152 -11.015440 -6.903745
C 9.477993 -10.237994 -5.863018
C 8.815118 -9.341530 -5.029970
C 7.030912 -1.829306 0.824703
C 7.707168 -0.924830 1.665327
C 8.839822 -1.336781 2.354576
O 9.503675 -0.429549 3.127862
H 12.009298 -4.268924 3.147593
H 10.428009 -5.047006 3.024129
H 11.219616 -4.348163 1.572703
H 8.930421 -4.556390 1.385319
H 7.324020 -6.420326 -4.709939
H 8.956028 -5.788703 -4.957157
H 8.019783 -7.874178 -2.955549
H 9.528245 -7.017033 -2.685706
H 11.485343 -7.438392 -4.088573
H 12.655314 -9.025090 -5.566961
H 12.367858 -10.757205 -7.020972
H 8.925185 -11.026314 -6.365200
H 7.744688 -9.441422 -4.880950
H 6.165650 -1.481348 0.279440
H 7.366158 0.097183 1.777702
H 10.247939 -0.926451 3.525333
C 9.692863 2.199846 -4.808985
O 9.133478 2.842458 -3.663816
C 8.210596 2.117649 -2.953170
C 7.433912 1.061093 -3.452933
C 6.473503 0.426581 -2.638978
C 5.665854 -0.750600 -3.089088
C 4.380512 -0.561223 -3.549797
C 3.526344 -1.781729 -3.821529
O 2.696054 -2.198130 -3.045906
O 3.759279 -2.291782 -5.068623
C 3.134362 -3.568443 -5.321892
C 2.220453 -3.533316 -6.544185
C 1.212044 -4.657628 -6.557276
C 1.525007 -5.873184 -7.178334
C 0.636738 -6.950070 -7.131011
C -0.566674 -6.820668 -6.456353
O -1.391297 -7.908998 -6.414451
C -0.913790 -5.618244 -5.840875
C -0.013322 -4.548889 -5.879370
C 6.324048 0.851063 -1.315088
C 7.113911 1.880782 -0.800538
C 8.005369 2.533297 -1.632433
O 8.674250 3.610962 -1.125791
H 10.433113 2.881461 -5.237620
H 8.938835 2.009431 -5.578007
H 10.203150 1.269605 -4.535655
H 7.557537 0.725882 -4.480260
H 2.632059 -3.973892 -4.437499
H 3.941371 -4.277668 -5.527903
H 1.700860 -2.579372 -6.586838
H 2.819183 -3.549741 -7.464771
H 2.467070 -5.992781 -7.697100
H 0.906133 -7.898874 -7.590915
H -2.078270 -7.737264 -5.750719
H -1.858806 -5.502270 -5.316778
H -0.275870 -3.634029 -5.360894
H 5.594287 0.376622 -0.665716
H 6.997578 2.190573 0.236062
H 9.255482 3.904910 -1.848549
C 5.437392 6.031165 -5.104653
O 4.414289 6.045149 -6.111880
C 3.303077 5.274169 -5.904850
C 3.057925 4.411580 -4.792367
C 1.954185 3.561552 -4.793065
C 1.710047 2.475705 -3.772412
C 0.405275 2.234066 -3.405061
C 0.022502 0.817740 -3.693408
O -0.583958 0.111261 -2.898564
O 0.312614 0.515269 -4.988955
C -0.204052 -0.706968 -5.538685
C -0.110095 -0.756615 -7.090166
C -0.714591 0.330324 -7.946980
C 0.095810 1.356076 -8.461178
C -0.409760 2.295573 -9.369108
C -1.747009 2.249906 -9.726316
O -2.302626 3.166558 -10.568469
C -2.573524 1.245846 -9.231485
C -2.043775 0.278457 -8.371818
C 1.065884 3.618955 -5.897239
C 1.249718 4.504431 -6.957191
C 2.378038 5.305969 -6.972793
O 2.611093 6.084960 -8.071229
H 5.024141 6.088471 -4.100166
H 6.078371 6.904939 -5.268120
H 6.044211 5.128891 -5.209709
H 3.769804 4.369364 -3.981577
H -1.227042 -0.904284 -5.201682
H 0.417123 -1.506054 -5.122298
H 0.950702 -0.783310 -7.355347
H -0.518370 -1.713311 -7.438250
H 1.144012 1.409630 -8.188352
H 0.277680 3.040939 -9.774806
H -1.605357 3.789355 -10.833912
H -3.616211 1.206784 -9.532122
H -2.686664 -0.533800 -8.052217
H 0.217303 2.959616 -5.979139
H 0.512282 4.521293 -7.754506
H 2.396922 5.522201 -8.841308
C -4.465527 9.105164 -1.911939
O -3.167204 9.024043 -2.508615
C -3.055028 7.859505 -3.227066
C -3.140889 6.598355 -2.629532
C -3.082673 5.429156 -3.420194
C -3.207139 4.053912 -2.779056
C -4.378380 3.854302 -2.075165
C -5.533060 4.801791 -2.455151
O -6.213301 5.429789 -1.656603
O -5.846952 4.632353 -3.768682
C -7.087941 5.251655 -4.133951
C -7.270858 5.253202 -5.658134
C -6.391328 6.223799 -6.406001
C -6.318089 7.583550 -6.059471
C -5.493207 8.460999 -6.774770
C -4.743552 7.979050 -7.838924
O -3.822334 8.776618 -8.459023
C -4.859709 6.658847 -8.251672
C -5.675816 5.781547 -7.530621
C -2.910047 5.562701 -4.808449
C -2.705208 6.822575 -5.384358
C -2.785512 7.956217 -4.593745
O -2.607970 9.175960 -5.177983
H -4.824762 8.157878 -1.498410
H -4.416349 9.835522 -1.093160
H -5.190058 9.457415 -2.661517
H -3.245343 6.513430 -1.551388
H -7.163951 6.260316 -3.721792
H -7.870460 4.620845 -3.697879
H -7.095521 4.234915 -6.016457
H -8.317258 5.505281 -5.877053
H -6.878968 7.975537 -5.214739
H -5.423123 9.508486 -6.470974
H -3.371669 9.266866 -7.738155
H -4.279048 6.304122 -9.099519
H -5.721642 4.743178 -7.849034
H -2.917020 4.716785 -5.483570
H -2.499913 6.907817 -6.449559
H -2.588367 9.802247 -4.428530
C -6.358955 8.728795 1.942301
O -5.142338 8.719003 1.193774
C -4.556981 7.475987 1.257514
C -5.211545 6.319665 0.885970
C -4.602124 5.051763 1.036372
C -5.492944 3.866471 1.030885
C -6.172358 3.850626 2.231219
C -7.478355 4.620720 2.210170
O -7.707042 5.677617 2.782659
O -8.414704 3.972093 1.476657
C -9.780236 4.231337 1.844195
C -10.302979 5.581167 1.349431
C -11.810075 5.649227 1.375943
C -12.539194 5.185995 2.486827
C -13.934159 5.159322 2.466667
C -14.614794 5.644501 1.360260
O -15.977618 5.637257 1.408552
C -13.918339 6.148025 0.260354
C -12.515607 6.157984 0.277614
C -3.285911 4.991829 1.497191
C -2.631117 6.165275 1.864949
C -3.260424 7.404312 1.726330
O -2.580463 8.528650 2.086406
H -6.550535 9.764342 2.228539
H -6.291142 8.136352 2.859338
H -7.187741 8.377960 1.318490
H -6.246311 6.384562 0.551356
H -9.891877 4.120813 2.930749
H -10.373124 3.435744 1.378056
H -9.929333 5.739889 0.331664
H -9.893653 6.402839 1.946346
H -12.032517 4.828659 3.379321
H -14.487085 4.780491 3.323410
H -16.313575 6.040993 0.594745
H -14.441555 6.546909 -0.604867
H -11.979698 6.560953 -0.584269
H -2.785567 4.040623 1.651307
H -1.649303 6.155348 2.307314
H -3.076986 9.254628 1.661150
C -4.056379 -1.712490 7.661061
O -5.404090 -1.614998 7.228985
C -5.855220 -0.333900 7.021441
C -5.065287 0.769416 6.654476
C -5.655577 2.035259 6.482888
C -4.935771 3.298757 6.036608
C -4.011225 3.832765 6.908266
C -4.193552 5.266735 7.376151
O -5.251086 5.854163 7.200064
O -3.120994 5.806335 8.006281
C -3.344960 7.131812 8.535678
C -3.524890 7.007927 10.062060
C -4.550611 7.962072 10.635893
C -4.281824 9.337134 10.736630
C -5.234055 10.201628 11.261504
C -6.457206 9.695028 11.700207
O -7.342928 10.576494 12.252159
C -6.752693 8.336614 11.589294
C -5.797612 7.471230 11.058328
C -7.037478 2.162207 6.739953
C -7.826034 1.069833 7.077521
C -7.240677 -0.169913 7.180855
O -8.029679 -1.240813 7.489185
H -3.372071 -1.431159 6.860985
H -3.867038 -2.763501 7.888730
H -3.871055 -1.134117 8.570323
H -3.999058 0.639941 6.474879
H -2.468330 7.751932 8.314700
H -4.211962 7.625551 8.068548
H -2.543547 7.145965 10.541124
H -3.839217 5.989555 10.296546
H -3.326956 9.727578 10.407381
H -5.013999 11.251816 11.374742
H -8.137650 10.081828 12.509197
H -7.704335 7.937211 11.925575
H -6.033019 6.415423 10.964974
H -7.510408 3.133577 6.700856
H -8.881107 1.193759 7.275338
H -7.400294 -1.987738 7.558914
C 2.707895 5.668505 7.895285
O 1.977976 6.695972 7.205463
C 0.810105 6.298917 6.599627
C 0.338387 4.990100 6.542049
C -0.874961 4.697163 5.880592
C -1.289425 3.275003 5.808747
C -0.558078 2.584413 4.943226
C 0.384856 2.092537 3.995661
O 1.580222 2.258272 4.179241
O -0.195917 1.668807 2.845188
C 0.702980 1.433309 1.735103
C 1.044647 -0.045966 1.661572
C 0.196911 -0.838058 0.699136
C -1.197546 -0.880135 0.809552
C -1.954548 -1.647827 -0.078261
C -1.307107 -2.359098 -1.082919
O -2.032742 -3.014685 -2.032619
C 0.072355 -2.360576 -1.189478
C 0.819973 -1.590799 -0.305790
C -1.608176 5.714401 5.275670
C -1.146251 7.031350 5.340914
C 0.056819 7.308631 5.993684
O 0.472365 8.610048 6.049371
H 3.565803 6.150768 8.371153
H 2.108846 5.210278 8.690017
H 3.094514 4.919964 7.196717
H 0.919587 4.167353 6.957793
H 1.624405 2.019142 1.871111
H 0.216351 1.803073 0.828707
H 2.084414 -0.111264 1.324067
H 0.964142 -0.503897 2.649104
H -1.702764 -0.318740 1.585662
H -3.034620 -1.676056 0.018076
H -2.237242 -2.302507 -2.668917
H 0.562071 -2.908127 -1.989201
H 1.900828 -1.562674 -0.447806
H -2.527820 5.516046 4.739487
H -1.710322 7.835209 4.879802
H 1.349053 8.562239 6.470393
