432
Molecule ID: homopoly_19996
C 0.790868 11.653209 6.861354
C 1.214738 11.028674 5.757558
C 0.553619 11.105636 4.435394
O 1.004945 10.523786 3.453901
O -0.541249 11.898867 4.470957
C -1.300591 12.005807 3.255881
C -2.748498 11.618863 3.542840
O -2.897783 10.288096 4.060701
C -2.562934 9.271067 3.114888
C -2.895670 7.895568 3.683670
O -2.387796 6.910663 2.777110
C -2.299021 5.665513 3.300966
O -2.664282 5.305353 4.411064
C -1.658253 4.752121 2.386713
C -1.051385 3.898783 1.605888
H -0.108900 12.261096 6.870924
H 1.337590 11.562214 7.794693
H 2.121003 10.430315 5.768595
H -0.886970 11.396608 2.445449
H -1.256303 13.051286 2.932010
H -3.373451 11.734490 2.652379
H -3.145479 12.278960 4.315205
H -3.106413 9.425425 2.172831
H -1.488598 9.302966 2.891540
H -2.447559 7.791665 4.684082
H -3.982117 7.787450 3.787089
H -1.087209 4.088181 0.540146
C 1.435249 -0.846686 -10.393473
C 0.834705 -0.671642 -9.207641
C 0.240094 -1.816112 -8.492969
O 0.193433 -2.955634 -8.917749
O -0.266265 -1.369877 -7.317878
C -0.990769 -2.323648 -6.513703
C -0.574921 -2.162132 -5.053780
O -0.954770 -0.859218 -4.606017
C -0.741765 -0.682377 -3.200246
C -0.719553 0.823517 -2.945693
O -0.666884 1.273050 -1.585871
C 0.468229 0.969680 -0.919470
O 1.136157 -0.042384 -1.033667
C 0.858333 2.113508 -0.055359
C 1.640544 3.072811 -0.595425
H 1.863514 -0.011209 -10.934411
H 1.508639 -1.831095 -10.853993
H 0.769801 0.304869 -8.740988
H -0.813352 -3.352902 -6.833364
H -2.057315 -2.095949 -6.623821
H -1.069546 -2.924099 -4.435174
H 0.510800 -2.259458 -4.965739
H -1.566695 -1.149078 -2.655837
H 0.194778 -1.161792 -2.897739
H 0.115516 1.276905 -3.490664
H -1.625256 1.265291 -3.377821
H 2.007488 3.900802 0.012603
C -7.295537 -0.033399 -9.366195
C -6.462737 0.586202 -8.522360
C -5.211481 1.216557 -8.991377
O -4.757223 1.124923 -10.121136
O -4.672684 1.881908 -7.940757
C -3.415757 2.541360 -8.169237
C -2.393739 1.992301 -7.180789
O -1.203377 2.787564 -7.220357
C -0.358666 2.476231 -6.112930
C 0.924972 3.295437 -6.138477
O 1.722205 2.962782 -4.992873
C 2.589432 1.946241 -5.123235
O 2.727790 1.308026 -6.158009
C 3.268588 1.606395 -3.812779
C 4.153818 0.586197 -3.970919
H -7.092584 -0.081471 -10.432322
H -8.203285 -0.500777 -9.003563
H -6.672806 0.622907 -7.459960
H -3.562157 3.616578 -7.997050
H -3.043831 2.428939 -9.193327
H -2.820619 1.995171 -6.169335
H -2.143958 0.956413 -7.434542
H -0.123703 1.407759 -6.114463
H -0.891608 2.701209 -5.184273
H 1.477506 3.168821 -7.075138
H 0.681631 4.363892 -6.074663
H 4.393802 0.260036 -4.983884
C 6.699960 5.766711 -9.129215
C 5.696009 5.555787 -8.267732
C 5.447998 4.286426 -7.546936
O 4.457164 4.119943 -6.856813
O 6.439534 3.391187 -7.775321
C 6.262205 2.100570 -7.176124
C 5.391624 1.223115 -8.063902
O 5.371053 -0.104911 -7.548452
C 4.390300 -0.905310 -8.205881
C 4.446153 -2.338660 -7.691066
O 3.963908 -2.409466 -6.336774
C 4.908097 -2.344367 -5.367790
O 6.117766 -2.246139 -5.529212
C 4.286314 -2.442837 -4.009387
C 3.472331 -3.510322 -3.855879
H 7.431445 4.998698 -9.367277
H 6.807668 6.728418 -9.627021
H 4.975213 6.337287 -8.053822
H 5.855404 2.180924 -6.161041
H 7.254499 1.651793 -7.065113
H 4.377512 1.630417 -8.118795
H 5.790322 1.205129 -9.084009
H 3.402820 -0.481243 -8.000803
H 4.578922 -0.893663 -9.286358
H 5.457075 -2.756305 -7.774407
H 3.786086 -2.970424 -8.287197
H 3.194041 -4.066792 -4.751807
C 6.983585 -6.346754 2.866128
C 7.451625 -7.279809 2.032927
C 6.520750 -8.075909 1.204802
O 5.307681 -8.066961 1.296270
O 7.252014 -8.764549 0.291101
C 6.487579 -9.577761 -0.610819
C 5.783166 -8.746886 -1.680678
O 5.241515 -9.632957 -2.664895
C 4.346418 -8.978898 -3.575656
C 2.941644 -8.859028 -2.984292
O 2.665479 -7.485370 -2.657553
C 1.458144 -7.311362 -2.042053
O 0.697433 -8.207864 -1.743648
C 1.230641 -5.849347 -1.775595
C 0.347264 -5.406999 -0.850229
H 5.918223 -6.141354 2.957417
H 7.657072 -5.752676 3.477316
H 8.510735 -7.468185 1.923425
H 7.189020 -10.271956 -1.089604
H 5.775255 -10.209075 -0.062338
H 4.991586 -8.137144 -1.234537
H 6.496982 -8.072701 -2.165539
H 4.303673 -9.629950 -4.453920
H 4.763169 -8.016223 -3.892073
H 2.838934 -9.487157 -2.089711
H 2.211611 -9.176863 -3.739056
H 0.238500 -4.330526 -0.774418
C -6.350237 -0.569863 10.254591
C -5.546032 -1.566586 9.850342
C -5.936461 -2.457382 8.738825
O -6.813196 -2.239089 7.926798
O -5.141631 -3.553820 8.808120
C -5.447257 -4.602487 7.874701
C -4.891957 -4.294973 6.486246
O -4.920338 -5.489567 5.702257
C -4.573306 -5.282241 4.327929
C -3.159689 -4.731839 4.141203
O -2.655027 -4.967351 2.819299
C -3.100943 -4.142170 1.837015
O -3.932651 -3.258375 2.004982
C -2.394797 -4.466354 0.537795
C -2.265959 -3.482871 -0.380748
H -6.071159 0.069088 11.087069
H -7.294241 -0.369220 9.751900
H -4.614681 -1.784670 10.366801
H -4.981835 -5.518944 8.257585
H -6.528348 -4.801638 7.830078
H -3.857993 -3.940496 6.583535
H -5.482037 -3.512076 5.996806
H -4.659345 -6.256214 3.829403
H -5.319151 -4.631232 3.858446
H -3.118009 -3.662478 4.380127
H -2.477887 -5.232165 4.835751
H -1.813710 -3.696206 -1.344504
C -4.550200 -11.157283 1.265631
C -4.601608 -9.980527 0.628011
C -5.166814 -9.894628 -0.737144
O -5.574975 -10.837895 -1.391023
O -5.157750 -8.589579 -1.100900
C -5.694223 -8.299107 -2.402421
C -4.760947 -7.333263 -3.131164
O -4.602826 -6.060352 -2.483382
C -5.824056 -5.327123 -2.354593
C -5.581301 -3.856044 -2.662350
O -4.993945 -3.142923 -1.560734
C -4.683512 -1.875867 -1.922567
O -4.819831 -1.422339 -3.069910
C -4.266712 -0.983434 -0.807790
C -5.084509 0.093402 -0.761330
H -4.137981 -11.235180 2.263690
H -4.924682 -12.066095 0.801273
H -4.230596 -9.065284 1.072242
H -5.815825 -9.202279 -3.016449
H -6.681662 -7.856472 -2.247889
H -3.757553 -7.773410 -3.193686
H -5.110460 -7.158166 -4.155369
H -6.195528 -5.466895 -1.335516
H -6.567740 -5.699584 -3.066099
H -4.935339 -3.775290 -3.546949
H -6.548912 -3.385675 -2.878225
H -6.049312 0.049651 -1.283426
C -7.223616 8.221095 -6.458847
C -6.762763 7.060358 -5.976289
C -7.311609 5.775821 -6.454800
O -8.146341 5.648070 -7.336961
O -6.749290 4.771896 -5.730909
C -7.116917 3.445846 -6.156161
C -8.498656 3.025192 -5.659882
O -8.424091 2.543344 -4.314952
C -8.626085 3.570707 -3.334424
C -8.083068 3.063885 -2.006953
O -6.639594 3.001334 -2.066946
C -5.957183 4.053257 -1.540192
O -6.462814 5.084651 -1.132731
C -4.486932 3.684115 -1.466400
C -3.478001 4.547703 -1.716239
H -6.828271 9.170450 -6.103180
H -8.006753 8.254452 -7.214474
H -5.981482 7.029726 -5.229541
H -6.352256 2.772418 -5.758213
H -7.071794 3.391150 -7.250620
H -9.248198 3.818819 -5.734689
H -8.837261 2.176127 -6.258952
H -8.107035 4.491470 -3.621582
H -9.700786 3.761075 -3.255396
H -8.414518 3.682451 -1.168871
H -8.425102 2.036942 -1.821552
H -2.458014 4.160595 -1.677326
C -10.760764 1.875095 6.892742
C -9.522711 1.370568 6.993784
C -8.391628 1.994502 6.278375
O -8.463755 2.973273 5.555302
O -7.274257 1.291924 6.577699
C -6.084404 1.731644 5.910984
C -5.057114 0.601224 5.947701
O -3.843497 0.903828 5.253041
C -3.080699 1.950728 5.866134
C -1.634984 1.892081 5.381549
O -1.546013 2.316640 4.008714
C -0.272419 2.414938 3.550817
O 0.736190 2.167069 4.201389
C -0.249757 2.807503 2.104374
C 0.567789 2.038083 1.361999
H -11.591210 1.417265 7.420556
H -10.970965 2.748167 6.281360
H -9.313419 0.499369 7.601212
H -6.289853 1.999554 4.869820
H -5.701070 2.618005 6.426846
H -4.832801 0.309914 6.980729
H -5.487762 -0.288517 5.474493
H -3.096277 1.821227 6.953850
H -3.530180 2.911922 5.602370
H -1.259301 0.865432 5.450097
H -1.027971 2.556411 6.006604
H 1.115931 1.225672 1.842212
C 9.727730 7.701644 1.319037
C 8.488254 7.386971 0.918996
C 8.156834 7.265089 -0.518652
O 8.792841 7.765135 -1.434293
O 7.051335 6.491763 -0.619106
C 6.727437 6.025838 -1.937074
C 6.070447 7.096176 -2.804541
O 5.121944 6.447543 -3.648440
C 3.849095 7.098027 -3.736045
C 2.761186 6.063860 -4.017283
O 2.855369 5.023276 -3.023570
C 1.732845 4.315331 -2.764225
O 0.590502 4.577037 -3.097032
C 2.103807 3.099722 -1.990027
C 2.818687 2.056693 -2.483584
H 10.521421 7.897430 0.603915
H 9.964096 7.770749 2.378534
H 7.697709 7.165420 1.629053
H 7.619791 5.621073 -2.418381
H 6.053999 5.173137 -1.799669
H 6.816758 7.574883 -3.443296
H 5.615631 7.878324 -2.189340
H 3.620576 7.596500 -2.789270
H 3.898756 7.844400 -4.533770
H 1.779909 6.544873 -4.012429
H 2.936893 5.588719 -4.986966
H 3.101081 1.323725 -1.724068
C 2.668750 1.919324 8.100269
C 2.953421 2.028484 6.794191
C 3.745218 0.985655 6.100739
O 4.131765 -0.052018 6.607077
O 3.972978 1.415554 4.835640
C 4.694166 0.496708 4.003890
C 5.270936 1.278667 2.832800
O 5.932820 0.396221 1.922522
C 6.636963 1.145955 0.916489
C 7.202273 0.188867 -0.132835
O 6.179260 -0.350805 -0.995238
C 5.724622 0.490275 -1.960316
O 6.003834 1.678069 -2.049531
C 4.851824 -0.218122 -2.962865
C 4.838614 -1.573486 -2.975301
H 3.020262 1.081338 8.690548
H 2.089573 2.685735 8.601531
H 2.609954 2.867259 6.201803
H 4.010442 -0.278124 3.642273
H 5.508659 0.005574 4.549574
H 4.466872 1.808825 2.306307
H 5.977591 2.028042 3.212430
H 7.461405 1.682631 1.404483
H 5.952421 1.869877 0.465353
H 7.678442 -0.666234 0.356535
H 7.961720 0.689209 -0.743623
H 5.385675 -2.115280 -2.205765
C 11.131943 -2.491010 2.309212
C 11.061521 -1.463215 1.440735
C 10.663448 -1.593094 0.021447
O 10.487549 -0.617075 -0.692924
O 10.547291 -2.887895 -0.341445
C 10.158852 -3.112866 -1.709884
C 9.746753 -4.575832 -1.843704
O 8.555139 -4.862978 -1.098491
C 7.370397 -4.545618 -1.824077
C 6.122555 -4.854412 -1.000195
O 5.010175 -4.792712 -1.902496
C 3.831079 -4.302828 -1.443001
O 3.545863 -3.995499 -0.303040
C 2.949392 -4.149934 -2.639189
C 1.828180 -4.896608 -2.727061
H 11.425421 -2.321657 3.337927
H 10.910862 -3.508496 2.012869
H 11.274456 -0.455225 1.761130
H 9.333052 -2.447530 -1.982004
H 11.021153 -2.908358 -2.356203
H 10.529719 -5.215229 -1.425427
H 9.611715 -4.860643 -2.893049
H 7.364710 -3.485614 -2.105831
H 7.346785 -5.130542 -2.753404
H 6.180641 -5.867473 -0.594772
H 6.032147 -4.150195 -0.163666
H 1.273108 -4.891136 -3.667372
C 0.111742 -4.012074 8.226219
C -0.066742 -4.836854 7.188977
C -0.279668 -6.281279 7.406397
O -0.082581 -6.870354 8.458755
O -0.744947 -6.829531 6.253904
C -0.905702 -8.254769 6.323071
C -1.681181 -8.761620 5.110014
O -0.858244 -8.718547 3.933512
C -1.386522 -9.554066 2.896123
C -0.509169 -9.495071 1.645171
O -0.895372 -8.365017 0.838523
C 0.001900 -7.352048 0.772425
O 1.098018 -7.296142 1.308868
C -0.552280 -6.175548 0.001431
C -1.777747 -5.798837 0.452079
H 0.102897 -4.372101 9.251627
H 0.293027 -2.955242 8.067584
H -0.039143 -4.481383 6.165898
H 0.087180 -8.714581 6.352886
H -1.467931 -8.523767 7.225883
H -2.571885 -8.149230 4.929091
H -1.986522 -9.798672 5.302155
H -1.405913 -10.587777 3.262997
H -2.408575 -9.226577 2.672054
H -0.694850 -10.381619 1.032298
H 0.553095 -9.481481 1.909791
H -2.309214 -6.513780 1.082248
C 3.864388 -6.668093 7.892297
C 3.556153 -6.316931 6.636074
C 3.967689 -5.006274 6.099916
O 4.810187 -4.274728 6.591892
O 3.251897 -4.785646 4.974230
C 3.510614 -3.531136 4.315617
C 2.304647 -3.201740 3.445072
O 1.205579 -2.832144 4.300580
C -0.000546 -2.646235 3.565719
C -0.063647 -1.268322 2.909046
O -1.146025 -1.185084 1.972215
C -0.884549 -1.819702 0.803829
O 0.185229 -2.319704 0.482190
C -2.142146 -2.077136 0.028471
C -2.986732 -1.045484 -0.154852
H 4.389864 -5.990703 8.558691
H 3.566402 -7.631934 8.287287
H 3.015967 -6.981117 5.974527
H 4.401596 -3.651706 3.689853
H 3.667018 -2.731864 5.049658
H 2.022019 -4.077124 2.851273
H 2.544125 -2.367805 2.778194
H -0.139970 -3.463737 2.854202
H -0.830294 -2.725074 4.274418
H 0.880662 -0.985698 2.436439
H -0.245503 -0.515145 3.678465
H -2.682354 -0.100336 0.298186
C -5.538233 7.849448 9.127230
C -5.470483 7.456634 7.851986
C -6.656475 7.551441 6.966542
O -7.712633 8.082082 7.257391
O -6.359230 6.900809 5.813752
C -7.430162 6.861258 4.856580
C -7.180952 5.718448 3.881423
O -6.032907 6.012812 3.071531
C -5.842343 5.063026 2.014290
C -5.440742 3.674096 2.516432
O -4.814600 2.907908 1.474848
C -5.617163 2.064360 0.773577
O -6.813996 1.892359 0.927010
C -4.817096 1.458928 -0.337674
C -4.194142 2.257099 -1.237478
H -4.676852 7.766509 9.777557
H -6.452411 8.253036 9.550927
H -4.565261 7.038875 7.421949
H -7.446506 7.819768 4.328182
H -8.389588 6.691734 5.358658
H -6.984298 4.797636 4.436652
H -8.057306 5.590216 3.237193
H -5.057671 5.465283 1.367252
H -6.756109 5.014660 1.407986
H -6.314187 3.149547 2.924560
H -4.716493 3.757484 3.336399
H -3.684889 1.805940 -2.091136
C 4.375012 6.456592 5.909649
C 4.759634 5.504859 5.054260
C 4.244360 5.341336 3.680809
O 4.663280 4.463093 2.932194
O 3.268754 6.232108 3.391438
C 2.691934 6.031088 2.100353
C 1.617377 7.071600 1.831337
O 1.027726 6.785335 0.559999
C 0.185269 7.856841 0.126805
C -0.347313 7.572321 -1.272273
O -1.443877 6.639096 -1.220032
C -2.258876 6.736720 -2.311159
O -2.068909 7.458894 -3.281062
C -3.515378 5.955714 -2.109676
C -4.602845 6.537935 -2.526270
H 4.800995 6.498244 6.909616
H 3.641163 7.212065 5.648522
H 5.496155 4.761697 5.341335
H 2.250144 5.030208 2.048431
H 3.465695 6.108247 1.323959
H 2.067578 8.072639 1.834103
H 0.847181 7.048900 2.610528
H -0.634382 7.984749 0.842403
H 0.785463 8.773050 0.085830
H -0.690066 8.526509 -1.690822
H 0.436024 7.147906 -1.906864
H -5.495760 7.027336 -2.829157
