400
Molecule ID: homopoly_5357283
C 1.129232 -2.445515 -10.702066
O -0.081620 -1.707276 -10.531128
C -0.216603 -0.613582 -11.319356
O 0.566960 -0.226248 -12.172999
C -1.370200 0.176606 -10.980828
C -2.228868 1.135041 -10.719331
C -1.588140 2.474128 -10.856682
C -0.942943 3.054265 -9.745744
C -0.364336 4.317281 -9.838009
C -0.440029 4.997015 -11.044843
O 0.102050 6.255183 -11.107674
C -1.065342 4.437568 -12.172687
O -1.059323 5.240330 -13.289489
C -1.885114 4.815284 -14.363462
C -1.618925 3.162210 -12.079862
H 0.910498 -3.498555 -10.517743
H 1.857444 -2.105472 -9.962210
H 1.549203 -2.346850 -11.710849
H -0.913758 2.529924 -8.795755
H 0.121736 4.778808 -8.982748
H -0.169023 6.591538 -11.986339
H -1.528458 3.871569 -14.791374
H -1.820684 5.575051 -15.151257
H -2.936197 4.740466 -14.056231
H -2.097051 2.686694 -12.932548
C -3.312301 3.786338 -7.060043
O -3.595098 2.536803 -7.684625
C -3.771206 1.457431 -6.887986
O -3.530937 1.401425 -5.693095
C -4.438540 0.364429 -7.688623
C -5.549819 -0.197383 -7.118107
C -6.353625 -1.147624 -7.940004
C -6.040735 -2.511369 -8.010241
C -6.827326 -3.394931 -8.748999
C -7.925147 -2.899246 -9.440387
O -8.707214 -3.773854 -10.146014
C -8.229001 -1.538750 -9.430206
O -9.316379 -1.180354 -10.193336
C -9.297949 0.168375 -10.664734
C -7.459393 -0.666456 -8.667336
H -2.753108 4.400860 -7.769597
H -2.709692 3.675042 -6.163478
H -4.252627 4.290808 -6.841895
H -5.184224 -2.912556 -7.475328
H -6.577757 -4.449776 -8.781831
H -9.426699 -3.210181 -10.501322
H -9.567828 0.861653 -9.863539
H -10.059495 0.249998 -11.442096
H -8.332782 0.424107 -11.111731
H -7.685782 0.396234 -8.625876
C -7.812881 -2.437954 -0.940654
O -6.864598 -1.621307 -1.625081
C -7.371230 -0.774064 -2.549684
O -8.546338 -0.646567 -2.858404
C -6.239911 -0.004997 -3.213242
C -5.681705 0.990675 -2.441502
C -6.408471 1.376966 -1.131836
C -5.673598 1.614800 0.034341
C -6.272406 2.073525 1.212474
C -7.640450 2.307380 1.231810
O -8.208105 2.750254 2.402383
C -8.416410 2.135861 0.083568
O -9.757353 2.369920 0.220744
C -10.532401 2.426210 -0.962821
C -7.784207 1.704454 -1.098694
H -7.952884 -2.039756 0.069388
H -8.774706 -2.511408 -1.451436
H -7.392016 -3.444677 -0.858871
H -4.602246 1.500889 0.024884
H -5.660016 2.282599 2.083566
H -7.972823 2.091342 3.076348
H -11.573460 2.628981 -0.673052
H -10.194181 3.243639 -1.617589
H -10.524929 1.466967 -1.497276
H -8.351211 1.650774 -2.011572
C -0.052119 1.021859 -5.648336
O -1.137589 0.685186 -4.783496
C -0.970801 1.095302 -3.500212
O 0.024102 1.639785 -3.055676
C -2.213066 0.775530 -2.683737
C -2.022441 -0.386294 -1.984104
C -2.988871 -0.881401 -0.971236
C -3.713671 -2.048342 -1.181696
C -4.374050 -2.679130 -0.123428
C -4.337607 -2.132780 1.159346
O -4.907906 -2.885712 2.140440
C -3.669687 -0.931051 1.383588
O -3.473467 -0.301677 2.580563
C -4.551085 -0.303570 3.508830
C -2.995114 -0.328153 0.308427
H -0.235216 0.544509 -6.613258
H -0.014869 2.103828 -5.803434
H 0.896427 0.653235 -5.249728
H -3.700195 -2.536655 -2.148554
H -4.871920 -3.631627 -0.289009
H -5.570240 -2.329373 2.584410
H -4.398903 0.530820 4.199325
H -5.521269 -0.160607 3.020038
H -4.536845 -1.226451 4.093216
H -2.450624 0.591397 0.480031
C 4.042240 -3.734474 -1.860290
O 2.939947 -3.239954 -1.092178
C 2.382219 -2.129843 -1.621880
O 2.697180 -1.618837 -2.686086
C 1.262497 -1.612979 -0.776542
C 1.609119 -0.875584 0.314556
C 0.765988 0.304109 0.655708
C -0.113875 0.308914 1.736912
C -0.740416 1.495983 2.125416
C -0.483528 2.672037 1.437801
O -1.125250 3.808852 1.835847
C 0.402983 2.705387 0.365664
O 0.589784 3.943425 -0.184540
C 1.690912 4.083915 -1.069877
C 1.003026 1.511634 -0.036921
H 4.760774 -2.940115 -2.076016
H 3.681160 -4.193709 -2.783050
H 4.543931 -4.511818 -1.280163
H -0.352257 -0.605927 2.259567
H -1.458497 1.503277 2.940900
H -0.787967 4.510250 1.237813
H 1.781087 5.146017 -1.321928
H 2.629042 3.773499 -0.596469
H 1.518061 3.536573 -2.002154
H 1.686505 1.510529 -0.880095
C 7.756962 -1.382526 0.462946
O 6.652723 -1.206489 1.357099
C 5.760436 -2.228252 1.373147
O 5.737457 -3.180179 0.603441
C 4.734498 -1.998876 2.450979
C 5.159605 -2.172935 3.748320
C 6.561142 -2.726156 3.900632
C 7.643429 -1.892474 4.178274
C 8.919314 -2.434352 4.359876
C 9.089598 -3.808911 4.283017
O 10.340465 -4.318855 4.512542
C 8.029453 -4.667258 4.001749
O 8.332262 -6.000262 3.997658
C 7.215764 -6.892593 4.025797
C 6.769968 -4.114443 3.766973
H 8.653791 -1.005467 0.960480
H 7.581045 -0.792211 -0.441902
H 7.931558 -2.429716 0.195362
H 7.510554 -0.817260 4.217001
H 9.765658 -1.783555 4.572560
H 10.239783 -5.287500 4.394916
H 6.522300 -6.644898 4.838921
H 6.700665 -6.903471 3.059386
H 7.601394 -7.897855 4.213612
H 5.930080 -4.746813 3.506982
C 1.215641 -0.682122 8.365974
O 2.570990 -0.366802 8.032440
C 2.841327 -0.132276 6.731836
O 2.046276 -0.062002 5.809382
C 4.311947 -0.193978 6.531685
C 5.099870 0.863099 6.876558
C 6.581910 0.691347 6.640847
C 7.171614 1.488773 5.649605
C 8.553713 1.521275 5.482834
C 9.347277 0.744191 6.310455
O 10.701558 0.792213 6.131929
C 8.796929 -0.076131 7.297473
O 9.692268 -0.790132 8.052939
C 9.191099 -2.014285 8.584250
C 7.417722 -0.065103 7.486257
H 1.110218 -0.571995 9.449539
H 0.504750 -0.018216 7.875815
H 1.002124 -1.730119 8.126471
H 6.552068 2.132223 5.041498
H 9.013781 2.162334 4.736083
H 11.075691 0.182750 6.800294
H 8.717063 -2.619156 7.796612
H 10.045806 -2.581363 8.975251
H 8.497904 -1.821198 9.422880
H 6.985723 -0.574975 8.334327
C -0.315054 4.204047 8.940082
O 0.613002 4.071945 7.857454
C 1.420105 2.969374 7.868716
O 1.435903 2.118369 8.744726
C 2.446363 3.066279 6.758664
C 1.988909 3.398086 5.515706
C 2.954183 4.057155 4.577122
C 3.087601 5.457455 4.649882
C 3.914431 6.160644 3.775817
C 4.646805 5.452011 2.840335
O 5.460798 6.127998 1.976459
C 4.569611 4.062985 2.780780
O 5.334101 3.478326 1.799789
C 6.262290 2.531134 2.326868
C 3.707118 3.354001 3.629438
H -0.440520 3.283061 9.514719
H 0.036454 5.005323 9.595847
H -1.287600 4.486391 8.521580
H 2.527252 6.029005 5.385882
H 3.979774 7.242673 3.825581
H 5.761802 5.444835 1.343696
H 7.038445 3.054499 2.888910
H 5.770234 1.770710 2.941265
H 6.736846 2.022436 1.486987
H 3.600390 2.277955 3.530337
C -5.264534 4.110647 -10.631816
O -4.204961 3.185832 -10.359318
C -4.616957 1.913618 -10.169451
O -5.785657 1.551726 -10.222697
C -3.465561 0.967440 -9.912229
C -3.746849 0.003258 -8.984184
C -3.238144 -1.376316 -9.220864
C -3.643252 -2.039514 -10.408519
C -3.228478 -3.334180 -10.699402
C -2.420828 -3.994077 -9.796717
O -2.014054 -5.263787 -10.084612
C -2.063525 -3.380777 -8.588264
O -1.319457 -4.115526 -7.693918
C -2.200604 -4.724838 -6.749534
C -2.449665 -2.070208 -8.296643
H -6.012977 4.097034 -9.833349
H -5.705835 3.875901 -11.603791
H -4.826387 5.110990 -10.690330
H -4.318942 -1.540290 -11.104744
H -3.544856 -3.824107 -11.616223
H -1.419540 -5.521527 -9.352465
H -1.947762 -4.377558 -5.739734
H -2.056845 -5.804015 -6.801215
H -3.262838 -4.520324 -6.934118
H -2.152450 -1.611437 -7.356874
C -8.626245 2.710155 -4.918905
O -7.876827 1.503821 -5.002688
C -6.732846 1.586259 -5.730120
O -6.368947 2.566515 -6.356650
C -6.051661 0.245720 -5.762740
C -5.977695 -0.492448 -4.607219
C -6.073649 -1.983244 -4.790340
C -7.355982 -2.537404 -5.023358
C -7.571517 -3.914632 -5.051332
C -6.497397 -4.765318 -4.842953
O -6.672516 -6.121181 -4.850454
C -5.216897 -4.238507 -4.628187
O -4.149692 -5.086398 -4.517389
C -3.885288 -5.402163 -3.150904
C -4.997679 -2.854674 -4.618371
H -8.950063 3.034708 -5.913392
H -8.042438 3.489694 -4.417582
H -9.514468 2.509441 -4.307752
H -8.212799 -1.878863 -5.166342
H -8.573800 -4.295528 -5.223822
H -7.600254 -6.310068 -5.063863
H -4.787165 -5.391069 -2.528090
H -3.459976 -6.410442 -3.120459
H -3.141904 -4.704507 -2.759233
H -4.002116 -2.459558 -4.483394
C -5.215458 5.272813 -4.384689
O -4.765971 3.922976 -4.186852
C -5.216461 3.360835 -3.036044
O -6.049840 3.878823 -2.303523
C -4.597822 1.969013 -2.805456
C -3.217533 1.915392 -2.680214
C -2.592462 3.299720 -2.463555
C -1.856958 3.959293 -3.460458
C -1.365341 5.251408 -3.271217
C -1.629762 5.900838 -2.076569
O -1.167465 7.174843 -1.917569
C -2.372523 5.287836 -1.061788
O -2.602498 6.051413 0.053230
C -3.758484 5.680792 0.809538
C -2.814605 3.975683 -1.245766
H -6.189416 5.258543 -4.886466
H -4.490560 5.776093 -5.032127
H -5.263754 5.833669 -3.441180
H -1.670583 3.472628 -4.408709
H -0.798270 5.750391 -4.051155
H -1.435697 7.434065 -1.014249
H -4.629366 5.528583 0.162724
H -3.991280 6.500805 1.492247
H -3.553030 4.792755 1.413394
H -3.354884 3.466771 -0.454909
C 0.523009 -2.517769 -5.402830
O 0.422710 -1.911202 -4.114526
C -0.807351 -1.955341 -3.553115
O -1.805410 -2.449976 -4.052674
C -0.759113 -1.240806 -2.226850
C -0.119538 -1.947823 -1.241812
C -0.464474 -3.410524 -1.066505
C -1.193858 -3.769708 0.066797
C -1.543505 -5.097855 0.304988
C -1.078955 -6.083750 -0.550233
O -1.386985 -7.382976 -0.261589
C -0.277985 -5.771339 -1.649584
O 0.142990 -6.850495 -2.382551
C 1.237268 -6.628591 -3.266183
C 0.014981 -4.430565 -1.915079
H 1.542309 -2.368964 -5.769346
H 0.334768 -3.595009 -5.333182
H -0.167418 -2.038518 -6.102197
H -1.505601 -3.017205 0.788167
H -2.125257 -5.359887 1.180778
H -0.959179 -7.910064 -0.962731
H 0.918647 -6.050513 -4.139310
H 2.075676 -6.143336 -2.755837
H 1.583493 -7.603536 -3.614801
H 0.629615 -4.170278 -2.769362
C 5.118504 0.889316 -1.211427
O 4.464137 -0.205783 -0.568732
C 3.874733 0.120406 0.606901
O 3.934508 1.195600 1.176066
C 2.941180 -0.968027 0.995408
C 3.337925 -1.892710 1.923859
C 2.404295 -3.020649 2.220380
C 1.266185 -2.817749 3.005046
C 0.402351 -3.878194 3.262916
C 0.696188 -5.142560 2.769702
O -0.169408 -6.162309 3.053928
C 1.829705 -5.376459 1.989266
O 1.978774 -6.661465 1.539573
C 3.179658 -6.943768 0.821167
C 2.687892 -4.307790 1.732472
H 4.403671 1.695229 -1.403735
H 5.949191 1.259028 -0.604907
H 5.504773 0.533820 -2.170561
H 1.068049 -1.845012 3.439278
H -0.497640 -3.729001 3.851813
H 0.108306 -6.894301 2.464622
H 3.152250 -7.996805 0.523298
H 3.242966 -6.347341 -0.096713
H 4.060877 -6.792795 1.456636
H 3.585162 -4.454091 1.141044
C 1.783300 -4.350965 6.527164
O 2.499208 -3.194021 6.078467
C 3.531436 -3.451689 5.231842
O 3.815513 -4.534364 4.742671
C 4.310887 -2.169562 5.003686
C 4.774634 -1.611589 6.185066
C 5.135565 -2.537861 7.373853
C 5.760134 -3.783341 7.178610
C 6.068953 -4.646800 8.237895
C 5.803091 -4.253375 9.538812
O 6.115343 -5.092501 10.572567
C 5.231162 -3.011431 9.797793
O 5.017868 -2.704268 11.113708
C 4.477477 -1.423410 11.415433
C 4.910861 -2.173624 8.716137
H 0.962657 -4.571645 5.842650
H 1.362324 -4.116219 7.510560
H 2.431795 -5.224308 6.638847
H 6.005917 -4.150858 6.188592
H 6.539813 -5.604627 8.025571
H 6.134783 -5.999264 10.223185
H 3.476568 -1.308699 10.984963
H 5.149547 -0.623740 11.083967
H 4.388351 -1.342243 12.503507
H 4.492021 -1.202882 8.940635
C 5.766825 2.521899 10.986484
O 5.025659 2.249326 9.805857
C 5.689823 2.537315 8.652282
O 6.847582 2.906300 8.555856
C 4.759360 2.195204 7.493672
C 3.823327 3.179344 7.318221
C 4.227578 4.576283 7.751863
C 3.576084 5.263558 8.782305
C 3.907075 6.585349 9.066714
C 4.914726 7.207730 8.340795
O 5.211434 8.510907 8.631629
C 5.612630 6.536486 7.336179
O 6.588481 7.274403 6.717912
C 7.295443 6.641720 5.655555
C 5.266908 5.219164 7.045162
H 6.305857 3.470475 10.922333
H 6.456306 1.698765 11.194776
H 5.059263 2.601196 11.818851
H 2.803544 4.784610 9.371140
H 3.385537 7.136286 9.845736
H 5.924290 8.747856 8.004011
H 7.807678 5.739007 6.001354
H 6.627498 6.415306 4.822782
H 8.051181 7.340160 5.291087
H 5.768111 4.679133 6.248183
C -2.373962 5.478246 4.565366
O -1.574724 4.337504 4.879394
C -0.228075 4.547398 4.764888
O 0.262565 5.625019 4.459915
C 0.539255 3.304246 5.147611
C -0.155695 2.233529 5.457131
C -1.049413 1.179837 5.852332
C -0.923277 -0.103597 5.324150
C -1.797183 -1.122323 5.700884
C -2.795028 -0.858378 6.630697
O -3.658973 -1.850407 7.006527
C -2.921765 0.416964 7.199391
O -3.922970 0.588249 8.117557
C -3.623619 1.505910 9.166020
C -2.067245 1.440847 6.779799
H -2.174451 6.293536 5.267646
H -2.195526 5.806753 3.539658
H -3.423462 5.190348 4.656159
H -0.130389 -0.307165 4.614244
H -1.680602 -2.103663 5.250991
H -3.429022 -2.673128 6.544989
H -3.823689 2.533168 8.850231
H -2.591719 1.401008 9.522345
H -4.283897 1.276596 10.007336
H -2.187109 2.449933 7.158659
