512
Molecule ID: homopoly_98056
C 7.906425 -3.899802 3.443517
C 7.412690 -3.007163 4.578469
C 6.836726 -1.689482 4.027104
C 5.700390 -1.126082 4.896720
O 5.532871 0.293679 4.779050
C 5.087039 0.753649 3.583148
O 5.036127 0.094692 2.553209
C 4.506708 2.058504 3.662959
C 3.744137 3.078990 3.893021
C 5.979782 -1.428304 6.367658
C 5.924183 -2.936379 6.650598
C 4.488889 -3.345760 7.000189
C 6.811859 -3.257847 7.862616
C 6.380903 -3.760223 5.429217
H 7.067962 -4.299488 2.860953
H 8.565118 -3.351507 2.760391
H 8.461172 -4.759346 3.840948
H 8.276193 -2.768259 5.212954
H 7.648744 -0.958901 3.923663
H 6.459513 -1.854737 3.010527
H 4.741227 -1.579972 4.599275
H 2.917754 2.946425 4.588257
H 5.270797 -0.883880 7.002530
H 6.975624 -1.030591 6.614156
H 4.165728 -2.908230 7.956325
H 4.398750 -4.435942 7.090063
H 3.791245 -3.007722 6.228877
H 7.856158 -2.968260 7.687903
H 6.457718 -2.731587 8.755509
H 6.790895 -4.334164 8.085401
H 5.511357 -3.999698 4.794358
H 6.791335 -4.725370 5.753125
C 0.672655 7.738765 8.624145
C 1.641743 8.230806 7.550396
C 1.445803 7.431614 6.257009
C 2.449577 7.802568 5.169374
O 2.303526 6.837754 4.119424
C 2.550616 7.259671 2.843803
O 2.777400 8.409642 2.507957
C 2.512354 6.088716 1.900369
C 2.113294 6.334085 0.642042
C 3.886451 7.723679 5.690862
C 4.114055 8.513058 6.995326
C 5.519134 8.203783 7.533438
C 4.044515 10.021210 6.718369
C 3.080133 8.094548 8.053184
H 0.858550 6.692752 8.889990
H -0.365170 7.810791 8.272233
H 0.773072 8.336350 9.537720
H 1.415488 9.286194 7.365199
H 0.426670 7.594284 5.877237
H 1.508378 6.354750 6.475360
H 2.220375 8.807494 4.796028
H 1.825051 7.350863 0.366896
H 4.162301 6.667080 5.848239
H 4.569095 8.083551 4.910536
H 5.605606 7.149845 7.817192
H 6.282694 8.403565 6.770043
H 5.754464 8.805249 8.418387
H 4.121276 10.589945 7.650373
H 4.884442 10.328305 6.079018
H 3.123450 10.316510 6.204412
H 3.252255 7.045864 8.326175
H 3.217030 8.694972 8.963190
C 3.797529 10.120231 -2.459248
C 2.876821 9.147272 -3.189049
C 3.667288 8.009450 -3.850563
C 2.721979 6.933169 -4.403712
O 2.612290 5.871963 -3.407893
C 3.639949 4.992890 -3.335080
O 4.561014 4.958471 -4.152718
C 3.639752 4.160591 -2.066758
C 4.567802 3.197040 -2.098058
C 1.328821 7.488554 -4.689780
C 1.304878 8.937061 -5.202422
C -0.158739 9.401613 -5.283428
C 1.884011 9.003463 -6.626921
C 2.064132 9.887097 -4.251550
H 3.233940 10.987985 -2.102394
H 4.217411 9.626550 -1.580166
H 4.614757 10.463078 -3.103272
H 2.192925 8.713886 -2.445994
H 4.376467 7.589914 -3.120138
H 4.271011 8.421809 -4.669383
H 3.142145 6.514740 -5.325150
H 5.101092 2.971410 -3.028331
H 0.847929 6.841871 -5.428619
H 0.709545 7.427419 -3.783535
H -0.645130 9.313550 -4.301682
H -0.734575 8.801760 -6.002845
H -0.208162 10.454723 -5.590525
H 1.253417 8.453741 -7.336881
H 1.936728 10.047999 -6.972131
H 2.891803 8.576567 -6.682341
H 2.732473 10.534327 -4.836806
H 1.366842 10.554758 -3.730960
C 8.756728 1.906931 -5.401280
C 7.269816 1.595272 -5.352241
C 7.014959 0.383153 -4.445300
C 5.516487 0.052548 -4.290351
O 5.162181 0.380043 -2.912721
C 3.882993 0.212506 -2.505665
O 2.963785 -0.184110 -3.210487
C 3.721441 0.467436 -1.021659
C 2.817628 -0.390391 -0.479522
C 4.679535 0.810533 -5.322605
C 5.285242 0.790494 -6.739287
C 5.317127 -0.642922 -7.292930
C 4.376286 1.622428 -7.659652
C 6.714844 1.361914 -6.759101
H 8.970823 2.628904 -6.200164
H 9.353610 1.009861 -5.597343
H 9.092372 2.348594 -4.456232
H 6.765017 2.475632 -4.922953
H 7.524618 -0.488916 -4.880308
H 7.474766 0.557039 -3.459347
H 5.391835 -1.027771 -4.398185
H 2.387837 -1.097935 -1.203352
H 3.669076 0.387824 -5.385184
H 4.554038 1.847480 -4.994350
H 5.543601 -0.644017 -8.367128
H 6.087583 -1.246006 -6.796024
H 4.352512 -1.143466 -7.154645
H 4.717054 1.568416 -8.702936
H 4.369773 2.678854 -7.366341
H 3.338861 1.266260 -7.628312
H 6.741495 2.312381 -7.304643
H 7.381079 0.683712 -7.308189
C 1.700300 -7.055882 7.136726
C 0.687633 -6.048671 6.597028
C 1.374517 -5.163272 5.538454
C 0.915387 -3.707283 5.515740
O 1.135093 -2.940634 4.296145
C 1.728951 -3.459126 3.195773
O 2.381072 -4.486401 3.110161
C 1.223497 -2.730126 1.991453
C 0.162557 -3.246602 1.313205
C -0.582096 -3.632531 5.817311
C -0.972851 -4.218569 7.193046
C -2.339768 -4.914557 7.059761
C -1.121493 -3.119217 8.251333
C 0.076568 -5.224790 7.718894
H 2.334462 -6.591768 7.900223
H 1.200254 -7.916847 7.598744
H 2.358106 -7.411911 6.330796
H -0.119130 -6.603653 6.109106
H 2.458557 -5.182997 5.672777
H 1.189879 -5.661315 4.577929
H 1.450579 -3.168060 6.300658
H -0.154228 -2.717171 0.397255
H -0.927125 -2.595522 5.742072
H -1.125522 -4.174275 5.023652
H -2.269366 -5.792408 6.401305
H -2.715409 -5.242681 8.037998
H -3.081862 -4.233466 6.624644
H -0.208487 -2.519421 8.356234
H -1.966020 -2.454116 8.033381
H -1.313582 -3.566967 9.237759
H -0.405593 -5.888185 8.452011
H 0.868955 -4.697067 8.265212
C -7.283833 -10.588486 0.819602
C -6.001183 -10.442288 1.641344
C -5.255614 -9.152198 1.278137
C -3.813502 -9.367937 0.843263
O -3.295956 -8.153529 0.255566
C -2.892308 -7.131441 1.086304
O -3.035257 -7.117884 2.299131
C -2.219303 -6.047888 0.280618
C -2.458428 -5.894407 -1.038957
C -3.808512 -10.449395 -0.270975
C -4.309664 -11.821631 0.234569
C -5.163473 -12.526887 -0.848306
C -3.105952 -12.730348 0.536671
C -5.091468 -11.661755 1.559400
H -8.052083 -9.893722 1.189052
H -7.688453 -11.605639 0.871457
H -7.094055 -10.333661 -0.230810
H -6.328557 -10.366667 2.691202
H -5.776770 -8.635159 0.457335
H -5.294832 -8.456430 2.129714
H -3.156445 -9.694760 1.655156
H -1.760952 -5.203113 -1.522782
H -4.466460 -10.083224 -1.081959
H -2.814410 -10.532010 -0.729233
H -4.542782 -12.936631 -1.645556
H -5.752577 -13.345217 -0.418527
H -5.893597 -11.853917 -1.309268
H -3.381500 -13.495690 1.277007
H -2.277057 -12.133579 0.940006
H -2.738442 -13.266627 -0.354643
H -4.376624 -11.604487 2.403265
H -5.673951 -12.578315 1.740619
C -9.326950 -0.689080 -4.964677
C -8.568123 -1.716955 -5.794238
C -8.501853 -3.048244 -5.046740
C -7.608828 -4.061143 -5.786499
O -6.298909 -4.068203 -5.171484
C -6.160789 -4.783555 -4.033899
O -6.988278 -5.508911 -3.520761
C -4.800225 -4.497666 -3.454999
C -4.461449 -3.194862 -3.430207
C -7.414769 -3.705036 -7.260341
C -8.703144 -3.156186 -7.915837
C -9.777553 -4.262531 -7.965544
C -8.392895 -2.763614 -9.376057
C -9.235187 -1.914406 -7.159166
H -9.424139 0.256707 -5.506539
H -8.814903 -0.483467 -4.010741
H -10.333683 -1.061575 -4.726918
H -7.540676 -1.336315 -5.942804
H -9.513634 -3.459631 -4.963266
H -8.122197 -2.874193 -4.036784
H -8.026104 -5.070448 -5.719048
H -5.191673 -2.442784 -3.724795
H -6.617109 -2.957887 -7.353623
H -7.053184 -4.582359 -7.810446
H -9.362566 -5.192806 -8.371909
H -10.619470 -3.960976 -8.594480
H -10.181988 -4.494430 -6.972361
H -7.771563 -1.863499 -9.409032
H -7.871319 -3.571835 -9.902808
H -9.324596 -2.549280 -9.913956
H -9.071770 -1.002768 -7.749556
H -10.317918 -2.003403 -7.020828
C -9.664936 -1.683073 1.820695
C -8.256844 -1.085643 1.821483
C -7.560324 -1.224700 0.455905
C -6.027922 -1.136889 0.581835
O -5.479521 -0.721446 -0.680269
C -4.138248 -0.897049 -0.827078
O -3.376905 -1.358477 0.009528
C -3.699755 -0.503437 -2.194952
C -3.957705 0.742491 -2.667861
C -5.683463 -0.188057 1.725703
C -6.084956 -0.836386 3.074143
C -6.330638 0.264162 4.121784
C -4.949969 -1.740471 3.575013
C -7.371282 -1.684924 2.928048
H -9.688184 -2.688031 1.389629
H -10.065711 -1.739432 2.841385
H -10.336466 -1.047571 1.230592
H -8.389767 -0.018889 2.042390
H -7.946510 -0.449979 -0.223520
H -7.811939 -2.185405 -0.006956
H -5.642748 -2.141352 0.803392
H -3.639909 0.989823 -3.670457
H -6.211879 0.768527 1.586771
H -4.622958 0.070170 1.725075
H -5.516998 1.004050 4.107448
H -7.281635 0.786880 3.947683
H -6.375116 -0.166383 5.133782
H -4.813350 -2.604589 2.916468
H -4.002126 -1.186638 3.593566
H -5.144274 -2.117779 4.587843
H -7.134319 -2.734910 2.678819
H -7.907707 -1.711248 3.888241
C 9.088482 7.209010 6.517998
C 9.067714 5.758054 6.035102
C 7.630605 5.247738 5.880982
C 7.147615 5.278109 4.435699
O 5.815047 4.745642 4.374117
C 5.043515 5.170688 3.343725
O 5.313162 6.101134 2.599837
C 3.814220 4.340856 3.196619
C 2.790865 4.745139 2.415405
C 8.049531 4.414147 3.534065
C 9.539863 4.391145 3.917304
C 10.395094 4.382272 2.643562
C 9.866438 3.101774 4.682380
C 9.894356 5.626744 4.749317
H 8.602673 7.869044 5.793871
H 8.573073 7.305853 7.482214
H 10.122328 7.556592 6.645407
H 9.545930 5.159207 6.825793
H 6.946021 5.818241 6.520422
H 7.553622 4.215749 6.269026
H 7.160929 6.322022 4.110819
H 1.977208 4.064375 2.192675
H 7.656049 3.386232 3.492649
H 7.926472 4.786287 2.510245
H 10.321357 5.338853 2.111159
H 11.455664 4.217585 2.879066
H 10.077215 3.589177 1.953610
H 9.333085 3.014611 5.633485
H 10.940853 3.032152 4.882557
H 9.587477 2.218280 4.084937
H 10.963078 5.602995 5.023647
H 9.772873 6.526249 4.121859
C -1.654226 5.071713 -6.158855
C -1.477637 4.091019 -5.005375
C -0.676609 4.737471 -3.881468
C -0.499153 3.834727 -2.659760
O 0.696986 4.136572 -1.910006
C 0.870963 5.375589 -1.386426
O 0.138579 6.338389 -1.553250
C 2.089946 5.417916 -0.506788
C 3.187092 4.725567 -0.784861
C -0.420831 2.346830 -3.052415
C 0.041133 2.070528 -4.501246
C 1.511935 2.444358 -4.676086
C -0.079459 0.563286 -4.783277
C -0.830823 2.811783 -5.530439
H -2.194881 5.970078 -5.837643
H -2.204614 4.622098 -6.987086
H -0.678140 5.399717 -6.541294
H -2.469036 3.844145 -4.610178
H -1.168959 5.660353 -3.562342
H 0.299943 5.030193 -4.273898
H -1.352746 3.972483 -1.981994
H 3.997821 4.787016 -0.052912
H -1.406930 1.887178 -2.895619
H 0.260648 1.821104 -2.361930
H 1.644483 3.510570 -4.870028
H 2.115519 2.172722 -3.804191
H 1.928117 1.912546 -5.541221
H 0.344792 0.324309 -5.766839
H -1.126800 0.251008 -4.802442
H 0.449114 -0.020913 -4.022274
H -0.230365 3.007230 -6.431699
H -1.640155 2.143425 -5.870730
C 8.873389 7.056683 -3.353625
C 9.408514 6.531148 -2.020651
C 8.940702 5.096811 -1.762877
C 7.801278 4.960892 -0.736823
O 7.035956 3.792034 -1.088174
C 6.154807 3.290276 -0.194771
O 6.130308 3.485757 1.017079
C 5.087436 2.543203 -0.908688
C 4.602877 1.409640 -0.362166
C 6.887410 6.175729 -0.777983
C 7.609147 7.487491 -0.431200
C 7.565719 7.743685 1.085978
C 6.854235 8.656256 -1.078394
C 9.087182 7.477504 -0.866281
H 9.072502 8.133892 -3.470894
H 9.370331 6.553051 -4.197403
H 7.801511 6.877754 -3.476319
H 10.502391 6.515982 -2.136339
H 9.790411 4.514104 -1.379821
H 8.668379 4.607264 -2.711813
H 8.234865 4.831322 0.257985
H 5.019693 1.090097 0.584687
H 6.435136 6.246870 -1.777145
H 6.032696 6.036174 -0.105140
H 8.072190 8.683682 1.341562
H 6.533282 7.840325 1.438726
H 8.059594 6.943931 1.640095
H 5.841080 8.691446 -0.675204
H 7.328991 9.619345 -0.851836
H 6.780557 8.550281 -2.159615
H 9.408884 8.496048 -1.118829
H 9.718492 7.172656 -0.019953
C -1.336473 4.004489 3.733473
C -0.665455 2.943113 4.619309
C 0.272860 2.071339 3.784274
C -0.422366 0.970211 2.993260
O 0.562087 0.050003 2.457321
C 1.259167 0.431739 1.349305
O 1.204040 1.561305 0.864845
C 2.161563 -0.629674 0.806046
C 2.135909 -1.933043 1.185209
C -1.454042 0.199659 3.822026
C -1.537208 0.620731 5.306127
C -2.757246 -0.053227 5.964217
C -0.278934 0.186120 6.085104
C -1.737505 2.149457 5.374908
H -2.013364 3.539947 3.013260
H -1.908929 4.719632 4.334432
H -0.585508 4.578903 3.180353
H -0.060907 3.496283 5.350808
H 0.800964 2.720314 3.077788
H 1.069516 1.648569 4.406050
H -0.947685 1.434812 2.138899
H 2.835701 -2.598801 0.666044
H -2.437682 0.397939 3.369065
H -1.291204 -0.886917 3.757931
H -2.748407 -1.139814 5.820698
H -2.777146 0.136574 7.043737
H -3.693589 0.332322 5.556593
H -0.538434 -0.405641 6.968787
H 0.300900 1.048137 6.434338
H 0.372256 -0.435840 5.459479
H -1.762900 2.472899 6.423588
H -2.728849 2.397759 4.965314
C 1.884493 -10.906147 0.366670
C 1.009922 -9.804024 0.980735
C 1.896359 -8.614865 1.359788
C 1.306392 -7.702071 2.421896
O 0.264505 -6.849691 1.875378
C 0.673304 -5.766025 1.160881
O 1.777295 -5.612840 0.638247
C -0.330070 -4.652294 1.281236
C -1.610281 -4.885454 0.920268
C 0.726443 -8.419638 3.640823
C 0.643206 -9.951434 3.538943
C -0.399272 -10.459550 4.557543
C 1.984597 -10.594453 3.913152
C 0.168862 -10.349889 2.132073
H 2.638357 -11.253186 1.077958
H 1.276140 -11.758859 0.048034
H 2.417166 -10.536492 -0.521987
H 0.312871 -9.484921 0.188236
H 2.125771 -8.050720 0.444372
H 2.855398 -8.980543 1.730218
H 2.106065 -7.038737 2.790007
H -2.252013 -3.988034 0.812471
H -0.268035 -8.012717 3.881324
H 1.339400 -8.192157 4.522585
H -0.130986 -10.176223 5.580311
H -1.391029 -10.048444 4.344778
H -0.490246 -11.555828 4.509025
H 2.074465 -11.611102 3.516276
H 2.107875 -10.640612 5.001666
H 2.842230 -10.007876 3.559123
H -0.851174 -9.962606 2.008648
H 0.088306 -11.440215 2.069712
C -8.680131 -5.637395 3.270101
C -8.590126 -5.505559 1.758830
C -7.271443 -6.056542 1.222668
C -7.223464 -5.894377 -0.291274
O -5.987210 -6.323562 -0.866033
C -4.950569 -5.449099 -0.739281
O -4.955209 -4.434898 -0.058751
C -3.811030 -5.823387 -1.627702
C -3.938046 -5.553975 -2.946960
C -8.357893 -6.730710 -0.888809
C -9.726381 -6.180617 -0.455972
C -9.953215 -4.783072 -1.041106
C -10.840912 -7.083621 -1.012534
C -9.814708 -6.161562 1.084224
H -7.756817 -5.289151 3.750062
H -9.510914 -5.036532 3.658128
H -8.859859 -6.675512 3.589574
H -8.594991 -4.442105 1.523344
H -7.177829 -7.112423 1.503876
H -6.431180 -5.535369 1.712043
H -7.370371 -4.849287 -0.598083
H -3.070326 -5.778995 -3.580142
H -8.301576 -6.762813 -1.979060
H -8.259736 -7.782904 -0.566205
H -11.017127 -4.515998 -1.058976
H -9.426205 -3.993934 -0.506277
H -9.599291 -4.741781 -2.081278
H -10.825990 -7.091274 -2.107438
H -11.830367 -6.719297 -0.694567
H -10.733471 -8.116976 -0.652798
H -10.721549 -5.606692 1.384742
H -9.935009 -7.186771 1.470692
C 1.678627 -7.342996 -4.720909
C 1.934121 -6.244212 -3.689375
C 0.606644 -5.674501 -3.142627
C -0.096012 -4.693747 -4.107411
O -1.044284 -3.880095 -3.356677
C -2.043260 -3.341575 -4.114332
O -2.167646 -3.538830 -5.322001
C -3.098662 -2.669469 -3.322518
C -2.816385 -1.423358 -2.893457
C 0.887643 -3.779210 -4.848302
C 2.309400 -3.751981 -4.276651
C 2.375846 -3.176112 -2.859647
C 3.144305 -2.839155 -5.177081
C 2.883631 -5.176870 -4.288040
H 2.583831 -7.955645 -4.869601
H 0.866452 -7.994975 -4.370046
H 1.363873 -6.925062 -5.687784
H 2.446610 -6.721650 -2.843864
H 0.779917 -5.187586 -2.172614
H -0.120658 -6.472292 -2.884901
H -0.644712 -5.310741 -4.832183
H -1.796440 -1.045941 -3.006726
H 0.505393 -2.749301 -4.888472
H 0.944626 -4.121560 -5.903539
H 1.588715 -2.428652 -2.692801
H 3.360580 -2.715430 -2.696332
H 2.301440 -3.933627 -2.071170
H 2.763563 -1.808691 -5.151716
H 3.115998 -3.167739 -6.219875
H 4.200360 -2.836623 -4.867367
H 3.849611 -5.199684 -3.754376
H 3.118667 -5.448701 -5.339722
C -9.241843 5.657001 -5.463739
C -7.811707 5.696299 -4.925322
C -7.361282 4.325671 -4.386885
C -5.828577 4.192091 -4.465337
O -5.348085 2.982048 -3.819915
C -5.226177 3.025937 -2.474502
O -5.640801 3.944936 -1.777501
C -4.456209 1.881882 -1.899189
C -4.038784 2.038920 -0.663448
C -5.404619 4.168510 -5.923970
C -6.063164 5.264708 -6.789102
C -4.969302 6.029000 -7.579225
C -6.998040 4.632670 -7.839747
C -6.818898 6.296976 -5.934277
H -9.402119 4.815626 -6.150440
H -9.482567 6.590039 -5.998205
H -9.962169 5.540154 -4.647221
H -7.838459 6.400846 -4.073009
H -7.699328 4.220850 -3.346833
H -7.829104 3.510440 -4.949143
H -5.368206 5.050786 -3.975587
H -3.713080 2.245467 0.324485
H -4.316594 4.263133 -5.955853
H -5.598380 3.171660 -6.352928
H -4.333976 5.338347 -8.150272
H -5.417263 6.738350 -8.287356
H -4.317775 6.595504 -6.895570
H -6.418926 4.000254 -8.530019
H -7.758150 3.996087 -7.385548
H -7.493449 5.411086 -8.442772
H -6.083676 6.873480 -5.356268
H -7.329766 7.016280 -6.575034
