352
Molecule ID: homopoly_77920
C 1.925913 -10.045600 2.764228
C 3.182572 -9.218432 3.117767
C 4.179879 -9.282834 1.963602
C 2.828802 -7.728524 3.416966
C 1.893087 -7.605429 4.603954
O 1.645428 -6.241693 4.987451
C 2.651291 -5.586671 5.619967
O 3.840450 -5.895503 5.613633
C 2.189796 -4.642728 6.564684
C 2.224509 -3.835022 7.576207
H 1.181627 -9.418277 2.261781
H 1.485112 -10.461146 3.662385
H 2.196031 -10.879349 2.092381
H 3.650707 -9.679970 4.008772
H 3.774400 -8.780508 1.083108
H 4.381082 -10.337249 1.700877
H 5.129260 -8.807534 2.261691
H 2.365799 -7.293619 2.524447
H 3.758467 -7.179048 3.576311
H 2.262238 -8.221889 5.451436
H 0.924822 -8.040348 4.311348
H 2.775608 -4.208726 8.432528
C -2.126172 -8.229657 7.904918
C -2.661046 -6.858278 7.415587
C -2.198913 -6.569591 5.970389
C -2.311186 -5.735669 8.488061
C -0.812605 -5.319213 8.496683
O -0.601709 -3.865766 8.202815
C -1.156529 -3.362267 7.062201
O -2.252947 -3.666699 6.576938
C -0.291677 -2.347415 6.355242
C -0.769179 -1.939377 5.152734
H -2.639812 -8.542394 8.809124
H -1.050095 -8.209417 8.083018
H -2.368492 -8.983691 7.146831
H -3.757929 -6.911452 7.404091
H -2.287069 -7.477381 5.366589
H -2.757185 -5.746765 5.556839
H -1.148309 -6.268531 5.928763
H -2.499638 -6.207622 9.456601
H -2.952110 -4.862675 8.481095
H -0.446354 -5.453772 9.513702
H -0.298646 -5.806400 7.661506
H -1.723156 -2.345181 4.837371
C -7.766332 3.944587 4.686275
C -6.483500 3.434629 5.386182
C -6.863510 2.577717 6.603119
C -5.659159 2.663586 4.327943
C -4.361496 2.096110 4.898001
O -3.679619 1.457235 3.776490
C -3.093566 0.264428 4.022788
O -3.101434 -0.311363 5.084824
C -2.197272 -0.087293 2.870386
C -2.479025 -0.084120 1.537623
H -8.494204 3.122880 4.566814
H -7.545908 4.370331 3.722991
H -8.233779 4.723856 5.313999
H -5.907577 4.317344 5.761546
H -7.866124 2.831425 6.982069
H -6.115612 2.750928 7.394862
H -6.834119 1.492769 6.345654
H -5.434701 3.319606 3.481693
H -6.264319 1.800241 3.990711
H -4.521237 1.397334 5.717941
H -3.693627 2.897609 5.268615
H -1.622257 -0.073456 0.907915
C -6.998723 -5.527472 -3.912633
C -7.316064 -4.733012 -2.668105
C -8.100170 -5.592913 -1.634900
C -6.026103 -4.220673 -2.023967
C -6.289394 -3.100344 -1.010394
O -5.212520 -2.124362 -0.917418
C -5.259320 -1.283204 -1.965910
O -5.910906 -1.488905 -2.991113
C -4.270399 -0.139653 -1.824904
C -3.754784 0.405432 -2.956097
H -7.916036 -5.889632 -4.396163
H -6.458563 -4.908669 -4.626271
H -6.329481 -6.368951 -3.626708
H -7.932437 -3.869510 -2.929560
H -8.284328 -4.998166 -0.710659
H -9.042308 -5.950039 -2.070567
H -7.470556 -6.444467 -1.324918
H -5.557982 -5.061413 -1.498919
H -5.308950 -3.904854 -2.782302
H -6.431674 -3.531855 -0.005763
H -7.231170 -2.579199 -1.254943
H -3.022009 1.209346 -2.810441
C -3.393058 6.883861 -3.632322
C -3.438499 5.986381 -4.847355
C -4.894395 5.812478 -5.286194
C -2.813904 4.635757 -4.489545
C -2.601376 3.766723 -5.746486
O -2.502395 2.372504 -5.390299
C -1.289674 1.852691 -5.099925
O -0.212225 2.425704 -5.136605
C -1.424476 0.399941 -4.695173
C -0.337986 -0.124549 -4.104068
H -3.778388 6.380409 -2.751015
H -2.356676 7.194750 -3.448418
H -3.979930 7.787572 -3.797926
H -2.873367 6.455427 -5.668925
H -5.412120 5.050510 -4.676755
H -5.451822 6.732856 -5.163026
H -4.958237 5.507141 -6.336792
H -1.839663 4.754208 -3.986506
H -3.475210 4.093378 -3.780771
H -1.718229 4.103941 -6.295643
H -3.462876 3.831367 -6.419940
H 0.497972 0.557218 -4.032884
C 3.622969 -4.992951 -8.553259
C 4.731166 -4.223631 -7.838613
C 5.863266 -5.180716 -7.450300
C 4.181043 -3.563125 -6.572335
C 3.082593 -2.551703 -6.875928
O 2.497238 -2.125827 -5.603043
C 3.223503 -1.204854 -4.872282
O 4.275263 -0.688677 -5.229719
C 2.488010 -0.902322 -3.613304
C 2.956533 0.089856 -2.829514
H 2.995228 -5.523325 -7.831391
H 2.990550 -4.319096 -9.130850
H 4.055461 -5.728715 -9.256180
H 5.118305 -3.462578 -8.527307
H 6.608341 -4.654765 -6.816733
H 5.471393 -6.052766 -6.902592
H 6.381975 -5.536602 -8.352960
H 5.002622 -3.067633 -6.006189
H 3.782767 -4.340124 -5.901342
H 3.425976 -1.719446 -7.468661
H 2.249876 -3.068314 -7.408592
H 3.860349 0.629269 -3.143023
C 0.244653 3.111848 5.336653
C -0.034435 4.152974 4.258021
C 0.810335 5.413717 4.449969
C 0.133551 3.560179 2.826500
C 1.577838 3.155063 2.505014
O 1.654550 2.627763 1.144993
C 1.665688 3.616220 0.216817
O 1.738781 4.813261 0.465319
C 1.347764 3.104967 -1.137862
C 0.883198 3.955418 -2.090795
H 1.268193 2.703466 5.272299
H 0.108661 3.556385 6.317864
H -0.476366 2.287743 5.264087
H -1.076171 4.450956 4.321771
H 0.894760 5.971187 3.521561
H 1.819186 5.168317 4.817932
H 0.325640 6.082264 5.177267
H -0.542961 2.713647 2.698423
H -0.177891 4.341907 2.102634
H 2.279367 4.013845 2.624056
H 1.912618 2.367144 3.195941
H 0.587960 3.545504 -3.014134
C 8.956548 4.681937 -2.260700
C 7.793650 5.048462 -1.332199
C 8.270554 6.069490 -0.308340
C 6.548428 5.607558 -2.076300
C 6.067509 4.705648 -3.208192
O 4.815523 5.136746 -3.753095
C 3.731836 5.017452 -2.956839
O 3.725568 4.603879 -1.805065
C 2.516028 5.686019 -3.633952
C 2.691645 5.878706 -4.952498
H 9.720344 4.104487 -1.705881
H 9.438449 5.598615 -2.634380
H 8.637387 4.093873 -3.127403
H 7.485312 4.132157 -0.783975
H 7.440148 6.462825 0.283332
H 8.739606 6.920422 -0.797114
H 9.013558 5.628259 0.363764
H 6.789933 6.586072 -2.461804
H 5.764576 5.793960 -1.329663
H 6.821228 4.760774 -4.003778
H 6.049024 3.676597 -2.939856
H 3.503632 5.358102 -5.457454
C 6.327614 1.428942 9.694632
C 6.912349 0.505295 8.611847
C 7.499566 1.377963 7.505358
C 5.879719 -0.456954 8.017020
C 5.183874 -1.303358 9.056470
O 4.166107 -2.127043 8.429620
C 3.022868 -1.479015 8.095419
O 2.809207 -0.266342 8.210427
C 2.001230 -2.413736 7.490357
C 0.928024 -1.767432 6.973873
H 6.246875 0.897565 10.649540
H 6.967828 2.308054 9.823320
H 5.333284 1.792685 9.388628
H 7.741007 -0.076274 9.046451
H 8.042772 0.778261 6.757852
H 6.693688 1.933004 6.993469
H 8.196013 2.108252 7.924084
H 6.362515 -1.109357 7.286749
H 5.140629 0.147202 7.467837
H 4.734061 -0.717693 9.872103
H 5.907759 -1.999370 9.509668
H 0.874721 -0.703322 6.990692
C 6.251796 0.784178 3.653655
C 5.652596 0.437732 2.282821
C 6.154070 1.396482 1.210165
C 4.117677 0.542849 2.298531
C 3.419379 -0.292154 3.413915
O 1.986084 -0.215276 3.271102
C 1.398962 -1.243955 3.952875
O 2.015957 -2.174025 4.471778
C -0.111029 -1.107234 4.110275
C -0.741691 -0.390483 3.150930
H 5.635585 1.548938 4.180933
H 7.267210 1.188917 3.547169
H 6.294797 -0.100362 4.285777
H 5.946068 -0.581326 2.020010
H 5.966423 2.424439 1.478827
H 5.674694 1.180413 0.272619
H 7.226989 1.283264 1.080549
H 3.861708 1.584157 2.458664
H 3.729127 0.259392 1.313951
H 3.686384 0.086495 4.364906
H 3.782534 -1.343493 3.337916
H -0.111267 0.099899 2.418359
C -8.566049 -0.585600 3.869862
C -8.701405 -1.462157 2.632847
C -10.145275 -1.916151 2.500592
C -8.252297 -0.826519 1.262663
C -7.387662 0.430476 1.385231
O -6.098637 0.302660 0.645936
C -5.071844 -0.187188 1.381509
O -5.184961 -0.625472 2.533329
C -3.752261 0.006704 0.711153
C -3.504863 0.112618 -0.599900
H -9.167139 -1.003703 4.693964
H -8.945505 0.442048 3.690389
H -7.500698 -0.499124 4.208730
H -8.057536 -2.345641 2.797375
H -10.276112 -2.785197 3.174072
H -10.861374 -1.099457 2.794608
H -10.388194 -2.227124 1.458495
H -9.114602 -0.562831 0.639741
H -7.698681 -1.621137 0.748399
H -7.087560 0.609124 2.384855
H -7.894775 1.304989 1.010533
H -2.474119 0.339280 -0.873259
C -4.694239 0.625530 -10.316383
C -5.228016 0.512794 -8.885240
C -4.221560 1.195730 -7.959972
C -5.514815 -0.968372 -8.524667
C -6.039194 -1.194404 -7.081916
O -4.950263 -1.130561 -6.146111
C -5.091847 -0.240763 -5.167611
O -6.109219 0.407027 -4.904386
C -3.828561 -0.086356 -4.326546
C -2.701941 -0.231317 -5.045759
H -4.561604 1.688889 -10.533341
H -3.738797 0.086160 -10.437398
H -5.440282 0.224383 -11.026585
H -6.166340 1.078420 -8.836698
H -3.322412 0.577258 -7.844774
H -3.952065 2.167545 -8.365488
H -4.676609 1.414804 -6.992742
H -4.606041 -1.561618 -8.678061
H -6.267507 -1.350558 -9.237606
H -6.871228 -0.511288 -6.878665
H -6.486182 -2.216551 -7.013629
H -2.674527 -0.623481 -6.036207
C -3.526115 -5.148745 0.865883
C -2.559357 -5.586621 -0.246917
C -3.238680 -6.549268 -1.224110
C -1.996407 -4.339869 -0.957096
C -1.128214 -4.688073 -2.166759
O -0.350132 -3.522833 -2.564051
C -0.994898 -2.512989 -3.175169
O -2.201517 -2.495477 -3.422640
C 0.003773 -1.445344 -3.526930
C 1.303906 -1.725636 -3.290741
H -3.022328 -4.506310 1.584141
H -3.897580 -6.031875 1.407106
H -4.380069 -4.606593 0.448996
H -1.730573 -6.112805 0.241821
H -2.494052 -7.235627 -1.610512
H -4.020736 -7.129128 -0.722423
H -3.673912 -6.020878 -2.081019
H -1.423906 -3.737572 -0.234481
H -2.818737 -3.714106 -1.306790
H -1.725691 -5.073928 -3.005756
H -0.410483 -5.451968 -1.871339
H 1.620388 -2.684300 -2.894258
C 4.195735 -3.681694 1.306185
C 3.533606 -4.024825 -0.014490
C 3.806258 -5.510645 -0.310033
C 1.983711 -3.805358 0.011692
C 1.571825 -2.372357 0.317546
O 2.185029 -1.450742 -0.643599
C 1.632792 -0.189975 -0.618607
O 0.730689 0.189911 0.142676
C 2.236141 0.668161 -1.670938
C 1.999039 1.971665 -1.856068
H 5.267025 -3.934248 1.242833
H 4.180491 -2.604551 1.502212
H 3.797895 -4.253287 2.130755
H 3.946648 -3.448122 -0.818654
H 3.299161 -5.843566 -1.197188
H 3.476454 -6.134251 0.519435
H 4.879394 -5.671855 -0.450023
H 1.540111 -4.481941 0.732694
H 1.622644 -4.116530 -0.977129
H 1.904485 -2.115098 1.329944
H 0.495527 -2.309932 0.264674
H 2.418877 2.345460 -2.793253
C -2.004845 8.410535 3.286780
C -2.548012 7.917759 1.949883
C -3.817731 8.703345 1.586627
C -1.426397 8.007133 0.915066
C -1.866779 7.711513 -0.534013
O -0.734468 7.246847 -1.332355
C -0.477876 5.923142 -1.168281
O -1.118211 5.188248 -0.411755
C 0.622743 5.405837 -2.056396
C 1.363907 6.204258 -2.869344
H -1.916715 9.510320 3.249275
H -0.994483 8.054020 3.473921
H -2.686525 8.120189 4.091646
H -2.817138 6.842778 2.011199
H -3.593381 9.784498 1.631372
H -4.191572 8.466687 0.583842
H -4.587588 8.417851 2.291204
H -0.631022 7.287533 1.185934
H -0.921494 8.982191 0.927260
H -2.296931 8.625603 -0.991334
H -2.665809 6.973273 -0.549791
H 1.148260 7.259238 -2.968789
C 5.639376 5.545452 -7.650274
C 5.169146 5.074439 -9.061244
C 4.878816 6.291497 -9.909816
C 3.934308 4.105956 -9.019208
C 2.512597 4.717850 -8.841428
O 2.388976 5.183248 -7.480633
C 1.953041 6.455049 -7.296105
O 1.542000 7.204185 -8.160795
C 2.113948 6.842677 -5.836244
C 2.471521 8.116230 -5.627367
H 6.575419 6.090344 -7.755059
H 4.917033 6.269942 -7.222644
H 5.831975 4.701438 -6.981172
H 6.009772 4.507112 -9.507548
H 4.413643 6.017373 -10.868118
H 4.218170 6.984137 -9.353921
H 5.775920 6.864454 -10.089158
H 3.904646 3.547930 -9.947034
H 4.103238 3.373143 -8.215200
H 1.834737 3.868510 -8.939835
H 2.314827 5.492843 -9.594741
H 2.941425 9.031542 -5.754004
