688
Molecule ID: homopoly_93414
C -7.728265 4.249341 -4.733228
C -8.526917 3.313258 -5.298854
C -9.732936 3.771563 -6.020141
O -10.014686 4.972739 -6.234806
O -10.327934 2.720574 -6.656487
C -10.517181 2.905034 -8.089062
C -11.896958 3.473376 -8.420104
C -10.361140 1.556222 -8.798475
O -9.289902 0.762844 -8.284810
C -9.246300 -0.513645 -8.929522
C -7.831659 -1.066182 -8.926552
C -10.274236 -1.501374 -8.349233
O -9.849596 -2.221776 -7.188336
C -9.671491 -1.423197 -6.023739
C -9.527018 -2.408397 -4.832628
C -10.896103 -2.983161 -4.429870
O -8.988149 -1.715156 -3.691565
C -8.201609 -2.455519 -2.845564
O -7.699865 -3.558845 -3.108134
C -8.151649 -1.906687 -1.533830
C -8.238497 -1.471465 -0.322335
H -6.877075 3.953650 -4.163538
H -8.149528 5.241273 -4.558536
H -8.233495 2.243990 -5.354709
H -9.720715 3.564256 -8.472758
H -12.118604 3.355818 -9.505062
H -11.965682 4.534436 -8.157167
H -12.697959 2.972673 -7.857908
H -10.154448 1.747966 -9.853853
H -11.293886 0.997947 -8.737770
H -9.498133 -0.355669 -9.984514
H -7.131925 -0.371136 -9.398935
H -7.816042 -2.010449 -9.487322
H -7.457234 -1.252542 -7.913598
H -11.238817 -1.055024 -8.099475
H -10.480480 -2.257982 -9.095603
H -8.756544 -0.820797 -6.086866
H -10.521491 -0.745761 -5.863473
H -8.846143 -3.218941 -5.149841
H -11.561801 -2.199447 -4.053757
H -10.783676 -3.711219 -3.626144
H -11.371595 -3.472462 -5.283668
H -8.682872 -0.470496 -0.208371
C 1.232908 8.091582 5.969074
C 0.026146 8.024446 5.418737
C -1.113298 7.603438 6.263481
O -0.991245 7.241699 7.429851
O -2.266529 7.701935 5.550821
C -3.465925 7.318427 6.268522
C -4.374285 8.538896 6.413253
C -4.173049 6.173436 5.565129
O -5.179997 5.633254 6.422400
C -5.800025 4.466762 5.893220
C -4.886151 3.251079 6.051879
C -7.102537 4.207373 6.662745
O -7.835064 3.142338 6.078102
C -8.726614 3.574052 5.035994
C -9.405466 2.309408 4.447335
C -9.892666 1.382518 5.552626
O -8.378305 1.612303 3.688685
C -8.708567 0.741492 2.696405
O -9.848947 0.523282 2.312448
C -7.507877 -0.033409 2.296407
C -6.257312 0.411703 2.339689
H 2.106645 8.402499 5.398065
H 1.381923 7.839950 7.013939
H -0.159099 8.284206 4.378369
H -3.219565 6.986586 7.279362
H -3.794192 9.441728 6.624761
H -4.953703 8.723638 5.505611
H -5.087876 8.377020 7.224226
H -3.426453 5.411032 5.327155
H -4.617784 6.500880 4.620624
H -6.043279 4.634734 4.835549
H -5.374478 2.313581 5.726875
H -3.946241 3.331050 5.524737
H -4.605139 3.105163 7.105858
H -6.859016 3.888771 7.690738
H -7.710583 5.117063 6.784620
H -8.177827 4.119577 4.257736
H -9.475702 4.242192 5.479718
H -10.185895 2.637670 3.751311
H -10.255443 1.946316 6.423893
H -10.723557 0.788391 5.184866
H -9.126851 0.667788 5.875741
H -5.519494 -0.374731 2.144022
C -0.440188 5.379653 -7.976334
C -1.093972 6.492048 -7.649336
C -0.791674 7.373384 -6.516994
O -1.518963 8.343035 -6.255439
O 0.311817 7.001886 -5.826797
C 0.723252 7.881665 -4.755560
C 1.429158 9.093031 -5.380907
C 1.709557 7.178123 -3.806699
O 1.213948 6.047860 -3.095634
C 0.382631 6.249617 -1.930912
C 1.127152 6.908547 -0.763086
C -0.151996 4.830127 -1.585740
O -0.758720 4.471630 -0.333634
C -1.606088 5.366481 0.424640
C -1.340345 5.061027 1.948039
C 0.072434 5.492958 2.398059
O -1.523956 3.678456 2.274465
C -2.735195 3.318083 2.795216
O -3.615754 4.171233 3.031004
C -2.907589 1.880975 3.086659
C -2.003977 0.874754 3.262522
H 0.461719 5.043182 -7.458540
H -0.754758 4.744453 -8.807072
H -2.003142 6.761121 -8.191404
H -0.179072 8.163547 -4.198455
H 2.373377 8.773333 -5.851657
H 1.690717 9.830498 -4.618015
H 0.869364 9.597577 -6.181975
H 2.140640 7.889050 -3.103011
H 2.542185 6.807723 -4.417597
H -0.439948 6.898152 -2.254095
H 0.433260 7.447376 -0.101636
H 1.632326 6.165881 -0.130662
H 1.916573 7.610730 -1.052483
H 0.717301 4.160302 -1.641907
H -0.757858 4.505234 -2.449246
H -1.385054 6.375382 0.192909
H -2.663413 5.146695 0.218259
H -1.994981 5.700978 2.561477
H 0.221332 6.564113 2.246448
H 0.855191 4.963052 1.849732
H 0.206709 5.266767 3.458531
H -2.409398 -0.087345 3.574188
C -0.514827 -3.610547 -9.746957
C -1.524043 -4.478116 -9.517435
C -2.484748 -4.371982 -8.417404
O -3.374129 -5.190383 -8.236894
O -2.261856 -3.243503 -7.694393
C -3.131677 -2.947697 -6.594788
C -4.173932 -1.916794 -7.044561
C -2.307343 -2.378048 -5.439692
O -1.785484 -3.389320 -4.552595
C -2.673209 -3.712439 -3.477328
C -3.583145 -4.856279 -3.909434
C -1.924613 -4.121576 -2.218959
O -0.979467 -3.132929 -1.786545
C -0.547367 -3.411982 -0.450814
C 0.698699 -2.641197 -0.055245
C 1.506693 -3.518191 0.879935
O 0.403598 -1.349921 0.580233
C 1.493140 -0.499040 0.668003
O 2.580750 -0.814813 0.246837
C 1.330911 0.786964 1.406097
C 2.272437 1.741439 1.555904
H 0.146476 -3.758692 -10.581748
H -0.337891 -2.752341 -9.101067
H -1.679455 -5.336356 -10.165609
H -3.655644 -3.857841 -6.288832
H -4.788023 -2.306245 -7.854310
H -4.831220 -1.647856 -6.207834
H -3.683406 -1.003963 -7.415012
H -1.456999 -1.791631 -5.817410
H -2.916062 -1.677212 -4.876222
H -3.250106 -2.813365 -3.198324
H -3.822753 -5.519686 -3.068218
H -3.116057 -5.496756 -4.677890
H -4.531057 -4.481633 -4.300239
H -2.680984 -4.223466 -1.440470
H -1.401369 -5.071149 -2.381562
H -1.362833 -3.217378 0.240602
H -0.358189 -4.483227 -0.404187
H 1.248274 -2.469753 -0.967514
H 1.614501 -4.549195 0.496468
H 2.511045 -3.155614 1.081974
H 1.011951 -3.583124 1.850533
H 1.960932 2.608136 2.148213
C -2.941421 -4.231569 11.032781
C -2.437668 -3.003509 11.132767
C -1.007996 -2.783553 11.132971
O -0.160256 -3.674722 11.082143
O -0.722249 -1.437685 11.189527
C 0.655807 -1.079486 11.227925
C 0.993375 -0.611660 12.644827
C 0.915384 0.015872 10.196938
O 2.313573 0.068393 9.889643
C 2.694436 1.105759 8.959228
C 2.793921 2.439631 9.693067
C 4.029993 0.685378 8.304695
O 4.603131 1.754228 7.552172
C 4.875691 1.470155 6.202644
C 3.673162 1.527811 5.266123
C 2.903510 2.854690 5.452074
O 4.121680 1.435811 3.895016
C 4.300477 0.153526 3.450111
O 4.061411 -0.840130 4.140251
C 4.799604 0.058362 2.009268
C 5.178134 -1.193799 1.747057
H -4.001199 -4.449402 11.019348
H -2.262520 -5.090157 10.955657
H -3.105491 -2.131644 11.229961
H 1.318818 -1.938141 11.001128
H 0.281182 0.150924 12.975419
H 2.005966 -0.206725 12.692293
H 0.932531 -1.434543 13.359260
H 0.362812 -0.223174 9.281968
H 0.559632 0.983186 10.575710
H 1.935857 1.190007 8.163254
H 1.804873 2.788281 10.005862
H 3.225047 3.230958 9.063547
H 3.394519 2.344860 10.603511
H 4.738290 0.402877 9.085150
H 3.870910 -0.194351 7.675470
H 5.608317 2.221123 5.859259
H 5.422283 0.521936 6.116255
H 2.926058 0.744790 5.471882
H 3.536231 3.713590 5.209747
H 2.555242 2.954700 6.474590
H 2.026094 2.891774 4.794214
H 5.085159 -1.934375 2.531478
C 9.126366 -1.562648 6.663499
C 10.425726 -1.859982 6.803235
C 11.319307 -1.974150 5.618336
O 12.185853 -1.166855 5.330685
O 11.107194 -3.167303 5.020097
C 11.773096 -3.404880 3.773982
C 11.838340 -4.922572 3.610319
C 11.089781 -2.663115 2.613765
O 11.940952 -2.522090 1.493983
C 11.736219 -3.512089 0.458963
C 13.108411 -3.932126 -0.051968
C 10.840788 -2.920013 -0.626521
O 10.209093 -3.994613 -1.363093
C 8.971101 -3.560518 -1.958786
C 7.960658 -4.707624 -2.141123
C 8.283620 -5.971164 -1.341387
O 6.656654 -4.223682 -1.713775
C 6.161158 -3.246550 -2.514208
O 6.591456 -3.010040 -3.642176
C 4.959547 -2.576917 -1.963667
C 3.953221 -2.550260 -2.920976
H 8.644105 -1.823586 7.647782
H 8.319246 -1.480871 5.871525
H 10.512749 -2.663324 7.564816
H 12.824654 -3.063726 3.848746
H 12.556556 -5.309822 4.341081
H 10.875594 -5.417626 3.803250
H 12.172711 -5.174728 2.626833
H 10.130475 -3.090648 2.326493
H 10.832860 -1.660572 2.915958
H 11.256013 -4.393817 0.896385
H 13.928698 -3.365770 0.445631
H 13.274672 -4.992574 0.195446
H 13.225857 -3.826513 -1.150073
H 11.386792 -2.294762 -1.346872
H 10.092923 -2.259489 -0.160363
H 8.490088 -2.833918 -1.289021
H 9.187840 -3.049500 -2.933741
H 7.904946 -4.994167 -3.201505
H 9.297958 -6.300828 -1.505459
H 8.181271 -5.756961 -0.276669
H 7.577751 -6.785740 -1.569045
H 4.242446 -2.998577 -3.893466
C -3.052130 1.815911 9.074203
C -2.843508 0.837067 8.182680
C -3.956902 -0.004683 7.712798
O -5.128097 0.163187 8.033369
O -3.496644 -1.015842 6.907190
C -4.523614 -1.969940 6.546785
C -4.745832 -2.940593 7.710990
C -4.123684 -2.836065 5.346864
O -3.714574 -2.136557 4.168889
C -3.124621 -2.984410 3.133780
C -3.637638 -4.440389 3.167939
C -3.506972 -2.429513 1.768287
O -2.649366 -1.396442 1.245706
C -3.130184 -0.982778 -0.034541
C -2.325803 -0.057620 -0.944618
C -3.309858 0.231403 -2.106661
O -1.119027 -0.574528 -1.563425
C -0.284576 0.386639 -2.093676
O -0.482833 1.602271 -1.929978
C 0.766118 -0.103309 -3.060253
C 0.951701 0.602295 -4.213137
H -4.044828 2.026332 9.468398
H -2.253781 2.454401 9.430433
H -1.865959 0.627766 7.778466
H -5.425412 -1.401410 6.280667
H -5.387702 -3.794127 7.419233
H -3.781659 -3.385807 8.020700
H -5.176543 -2.480937 8.587074
H -3.314358 -3.483366 5.660981
H -4.994927 -3.447316 5.105189
H -2.035730 -2.943528 3.255170
H -4.738648 -4.497115 3.159295
H -3.305140 -4.996252 4.053444
H -3.317333 -4.999354 2.292843
H -3.461674 -3.240238 1.039969
H -4.531551 -2.075113 1.820545
H -3.379036 -1.885910 -0.607911
H -4.048681 -0.434582 0.195949
H -2.067004 0.846644 -0.367264
H -4.129316 0.876283 -1.775454
H -2.855153 0.644053 -2.991132
H -3.795443 -0.703278 -2.454535
H 1.830401 0.307336 -4.810915
C 10.330894 3.468250 6.208874
C 10.553432 3.244984 4.924196
C 9.616479 2.413645 4.125143
O 8.687017 1.775063 4.578044
O 9.948194 2.605580 2.830794
C 9.065931 2.089662 1.827772
C 7.920109 3.070027 1.659955
C 9.905446 1.924618 0.565408
O 9.377532 0.943030 -0.301548
C 8.726480 1.395386 -1.499465
C 9.738038 1.944673 -2.513857
C 7.967172 0.217243 -2.101027
O 6.558171 0.420295 -2.112055
C 6.044571 1.157964 -3.229806
C 5.641208 2.592848 -2.874209
C 6.795760 3.571816 -3.076815
O 4.670074 3.091428 -3.798729
C 3.382646 2.691129 -3.654148
O 2.969754 2.127864 -2.656663
C 2.712067 2.749193 -5.009489
C 3.541783 2.413819 -6.020264
H 9.536866 2.980177 6.749939
H 11.003412 4.125463 6.777372
H 11.343285 3.767354 4.389289
H 8.690635 1.114299 2.139637
H 7.452747 2.998542 0.691633
H 8.278195 4.097203 1.784592
H 7.139397 2.928544 2.411852
H 10.052449 2.876658 0.058029
H 10.904454 1.586006 0.828074
H 8.003025 2.167203 -1.183835
H 9.334925 1.907539 -3.533570
H 10.662349 1.362961 -2.492544
H 9.979876 2.992937 -2.324565
H 8.115423 -0.666938 -1.468095
H 8.306346 -0.052125 -3.112520
H 6.775927 1.133516 -4.043980
H 5.183779 0.615374 -3.617614
H 5.257232 2.707959 -1.851972
H 7.428925 3.705224 -2.212240
H 7.419710 3.225885 -3.902400
H 6.413001 4.551349 -3.379650
H 4.559477 2.196098 -5.728418
C 4.683343 -8.445723 -3.728169
C 3.664247 -8.068262 -2.963261
C 2.422382 -8.867121 -3.061325
O 2.201217 -9.771884 -3.856209
O 1.534004 -8.371832 -2.176667
C 0.170290 -8.902590 -2.188623
C 0.079709 -10.411097 -2.108431
C -0.569109 -8.251442 -1.047992
O -1.994757 -8.416123 -1.158914
C -2.670994 -8.200457 0.104921
C -3.469250 -9.442871 0.465332
C -3.492514 -6.923249 0.113988
O -4.846700 -6.996792 -0.358355
C -5.442726 -5.683561 -0.371272
C -6.944370 -5.691468 -0.102729
C -7.711337 -6.606846 -1.060421
O -7.480313 -4.340138 -0.172554
C -7.310387 -3.592289 0.947074
O -6.769236 -4.033738 1.966166
C -7.762011 -2.146701 0.873388
C -7.590670 -1.483700 2.032997
H 4.556535 -9.209521 -4.506255
H 5.669132 -7.984958 -3.729714
H 3.764814 -7.314314 -2.183233
H -0.268732 -8.543426 -3.105676
H 0.878067 -10.871801 -1.505774
H 0.204703 -10.808725 -3.115510
H -0.922526 -10.756942 -1.791939
H -0.196181 -8.708722 -0.125893
H -0.351408 -7.179409 -1.010756
H -1.912501 -8.052000 0.885935
H -4.149270 -9.744366 -0.329602
H -2.777969 -10.276645 0.641143
H -4.060636 -9.320293 1.385147
H -3.569715 -6.637556 1.159940
H -2.963155 -6.146608 -0.455952
H -4.963694 -5.045294 0.373977
H -5.238524 -5.204580 -1.334642
H -7.147121 -6.108389 0.893051
H -8.762867 -6.665047 -0.740754
H -7.720735 -6.224066 -2.091063
H -7.303435 -7.608669 -1.054075
H -7.228004 -2.028503 2.905782
C -4.895272 12.269947 7.817482
C -6.079072 11.761298 7.487495
C -6.354315 11.400923 6.084598
O -5.590081 11.597507 5.154795
O -7.579988 10.820714 6.017697
C -8.016665 10.451734 4.688576
C -9.055669 11.468108 4.198005
C -8.600809 9.032999 4.712919
O -9.145882 8.659079 3.447428
C -8.201965 8.164735 2.483445
C -7.807233 9.262972 1.485594
C -8.883074 7.048482 1.685676
O -8.742881 5.791541 2.358616
C -8.949607 4.704992 1.443834
C -7.600039 4.151213 0.914641
C -7.910110 3.361369 -0.345749
O -7.004158 3.324001 1.937170
C -5.745874 2.800074 1.674583
O -5.053668 3.052284 0.705754
C -5.501676 1.639455 2.575215
C -4.311515 1.382881 3.190389
H -4.115347 12.431428 7.077873
H -4.663130 12.549545 8.845618
H -6.869550 11.589859 8.211794
H -7.167071 10.459774 4.007579
H -9.916617 11.526037 4.872779
H -9.421905 11.208330 3.200502
H -8.619231 12.472747 4.143556
H -9.407958 8.994405 5.450277
H -7.856572 8.293159 5.050300
H -7.322517 7.747826 2.990444
H -7.389959 10.141442 1.981608
H -8.674424 9.603950 0.909262
H -7.054548 8.887710 0.778566
H -9.957961 7.262785 1.593840
H -8.431916 6.982079 0.693066
H -9.488382 3.927129 1.981563
H -9.592143 5.052806 0.624566
H -6.899954 4.967946 0.686539
H -7.006132 2.981859 -0.825649
H -8.520541 2.482754 -0.098725
H -8.435649 3.961548 -1.093131
H -4.336290 0.469580 3.789011
C 4.981566 -10.599877 8.980517
C 4.027957 -9.909814 8.367550
C 3.882560 -9.901680 6.892021
O 4.605601 -10.538300 6.107006
O 2.836728 -9.120522 6.555651
C 2.519003 -9.077575 5.164913
C 1.714245 -10.303972 4.769852
C 1.639411 -7.862198 4.905870
O 2.319911 -6.608621 5.067747
C 1.433523 -5.459357 4.933133
C 0.696387 -5.475905 3.592461
C 2.285156 -4.177836 5.063773
O 2.021048 -3.396408 6.249916
C 1.510392 -2.105421 5.929883
C 0.020529 -2.168511 5.523878
C -0.725423 -2.643250 6.767432
O -0.502626 -0.932837 5.002997
C 0.035937 -0.621406 3.760556
O 0.951504 -1.282321 3.267882
C -0.588354 0.571179 3.048954
C 0.029695 1.087140 1.986326
H 5.649567 -11.238184 8.456101
H 5.045096 -10.595341 10.078432
H 3.307883 -9.322978 8.889473
H 3.452883 -8.973478 4.620562
H 1.687875 -10.416220 3.682075
H 2.110335 -11.227309 5.198142
H 0.664899 -10.244181 5.098013
H 1.296769 -7.925243 3.864600
H 0.769597 -7.880194 5.584960
H 0.744068 -5.531176 5.783854
H 1.425666 -5.582960 2.783251
H 0.120419 -4.557891 3.407786
H 0.003275 -6.309712 3.482501
H 2.202285 -3.557633 4.178988
H 3.318264 -4.482500 5.077977
H 2.134430 -1.610951 5.208341
H 1.624710 -1.444804 6.797249
H -0.216902 -2.954164 4.780043
H -0.730735 -1.861265 7.521534
H -1.757963 -2.881482 6.574711
H -0.247700 -3.519283 7.214084
H -0.507472 1.809536 1.364444
C 12.830515 3.557029 -1.659602
C 13.277291 3.640887 -2.913608
C 12.640868 4.352849 -4.041962
O 13.087696 4.286688 -5.183478
O 11.543367 5.072355 -3.657178
C 10.898113 5.792788 -4.718264
C 9.835971 4.905749 -5.360706
C 10.387809 7.169962 -4.228527
O 9.678528 7.199603 -2.986843
C 8.315368 6.741412 -2.993735
C 7.374367 7.588717 -3.857157
C 7.845639 6.760401 -1.533886
O 6.616526 6.053593 -1.360747
C 6.271731 6.017460 0.016178
C 4.914883 5.398335 0.354920
C 4.562532 5.851833 1.775331
O 4.938981 3.926310 0.360519
C 3.678871 3.368115 0.333821
O 2.659030 4.037611 0.116537
C 3.595895 1.995040 0.952509
C 4.693780 1.195288 1.127986
H 11.891335 3.994608 -1.332113
H 13.398729 3.020331 -0.901360
H 14.235720 3.183612 -3.199901
H 11.630572 6.045492 -5.498583
H 9.266940 4.327590 -4.617312
H 9.143549 5.492099 -5.968481
H 10.306423 4.155382 -6.010990
H 11.258961 7.793304 -4.053228
H 9.823774 7.677930 -5.004236
H 8.323831 5.694105 -3.304487
H 7.450134 8.651679 -3.613206
H 7.597851 7.493121 -4.915644
H 6.335572 7.290192 -3.706393
H 8.613602 6.279769 -0.889806
H 7.739952 7.802973 -1.183299
H 7.058704 5.471093 0.534233
H 6.265145 7.050526 0.378413
H 4.176937 5.718510 -0.398678
H 3.682177 5.369752 2.213235
H 4.417651 6.941477 1.824645
H 5.412478 5.615755 2.460614
H 5.621583 1.505412 0.618056
C -1.213791 -7.210723 8.798763
C -0.234311 -6.333335 9.024867
C 1.146968 -6.819946 9.254581
O 1.466672 -7.958901 9.521183
O 1.977667 -5.769315 9.089390
C 3.402019 -6.044354 8.982136
C 4.050026 -5.870242 10.340354
C 3.884328 -5.032863 7.965776
O 5.266492 -5.066933 7.623320
C 5.603184 -3.910861 6.811401
C 5.930951 -2.759481 7.770149
C 6.776643 -4.161804 5.876961
O 6.420442 -4.597665 4.545294
C 7.487873 -4.263006 3.636512
C 7.304503 -4.813232 2.218525
C 6.850571 -6.259507 2.259517
O 6.364243 -4.036602 1.408477
C 6.822494 -2.837496 0.959323
O 7.975143 -2.440570 1.112716
C 5.682081 -1.932257 0.529117
C 4.999070 -1.903547 -0.656264
H -1.009876 -8.277804 8.777097
H -2.238925 -6.882927 8.661428
H -0.378461 -5.264169 9.055407
H 3.571354 -7.049936 8.595748
H 3.535778 -6.457018 11.118038
H 4.020803 -4.830251 10.675567
H 5.095505 -6.177019 10.308715
H 3.596887 -4.042304 8.315157
H 3.314529 -5.260458 7.059599
H 4.767134 -3.595601 6.185951
H 5.056331 -2.401161 8.303971
H 6.299024 -1.871689 7.239172
H 6.666128 -3.054782 8.526244
H 7.467552 -4.901788 6.299588
H 7.260175 -3.193328 5.775824
H 8.402582 -4.664443 4.060301
H 7.575658 -3.179729 3.603411
H 8.271902 -4.807150 1.703369
H 7.615537 -6.895934 2.719759
H 5.925119 -6.364744 2.815666
H 6.648634 -6.631113 1.255180
H 4.327427 -1.060923 -0.747147
C -3.740229 -13.972042 -6.148485
C -4.960622 -13.746902 -5.661919
C -5.416195 -12.439020 -5.186233
O -6.507843 -12.292322 -4.627467
O -4.548647 -11.471679 -5.456691
C -4.821574 -10.163706 -4.975089
C -4.330108 -10.033678 -3.512430
C -4.152081 -9.127711 -5.888611
O -2.748985 -9.157276 -5.739825
C -2.063767 -8.110145 -6.401622
C -1.526942 -8.639242 -7.733106
C -0.956732 -7.676724 -5.438552
O -0.221100 -6.543733 -5.886088
C 0.728010 -6.119280 -4.887223
C 1.302543 -4.775869 -5.302431
C 2.276892 -4.955507 -6.486931
O 1.944630 -4.102589 -4.201011
C 1.737968 -2.751398 -4.194091
O 1.012722 -2.166776 -5.004149
C 2.539512 -2.058539 -3.113295
C 2.012340 -0.883109 -2.664924
H -3.047201 -13.117819 -6.337234
H -3.377725 -14.921003 -6.504104
H -5.646488 -14.586545 -5.480718
H -5.910380 -9.995956 -5.037113
H -3.278296 -10.327741 -3.439933
H -4.442229 -9.003233 -3.159404
H -4.907880 -10.697257 -2.868027
H -4.406198 -9.317824 -6.932950
H -4.505948 -8.141799 -5.604070
H -2.710799 -7.254316 -6.595227
H -0.923612 -7.886487 -8.261553
H -0.910975 -9.545286 -7.596822
H -2.358116 -8.941783 -8.379210
H -1.441183 -7.435646 -4.483752
H -0.264446 -8.520322 -5.296523
H 1.507510 -6.870952 -4.809586
H 0.237124 -6.028079 -3.919301
H 0.433761 -4.200897 -5.670708
H 1.973951 -5.791870 -7.143568
H 2.277980 -4.032695 -7.097787
H 3.292943 -5.143754 -6.131680
H 2.644737 -0.258722 -2.006242
C -6.447817 12.672862 0.540666
C -7.506360 12.338581 -0.208943
C -7.493039 11.795562 -1.573584
O -8.518909 11.636304 -2.219151
O -6.225827 11.528707 -2.007255
C -6.103722 11.153151 -3.389605
C -5.953984 12.421736 -4.226646
C -4.852870 10.291287 -3.599911
O -5.030092 8.944965 -3.139029
C -3.835008 8.163229 -3.337394
C -2.855556 8.436299 -2.186099
C -4.216328 6.695741 -3.398708
O -3.150176 5.918902 -3.965513
C -3.352495 4.527307 -3.728042
C -2.891878 3.613463 -4.866380
C -3.321462 4.088997 -6.243453
O -1.463884 3.395703 -4.820200
C -1.052025 2.084986 -4.887512
O -1.841988 1.142324 -4.993807
C 0.403077 1.885565 -4.709546
C 1.263338 2.869540 -5.105524
H -5.428272 12.569018 0.180804
H -6.586360 13.058646 1.541513
H -8.527055 12.458922 0.175420
H -6.989616 10.569385 -3.692259
H -6.002382 12.189287 -5.300253
H -6.714887 13.177028 -4.002506
H -4.970368 12.890257 -4.041218
H -4.655937 10.250347 -4.670373
H -4.003991 10.743315 -3.074838
H -3.359634 8.441784 -4.289935
H -3.344190 8.926322 -1.337359
H -2.394471 7.511195 -1.827589
H -2.035885 9.081883 -2.527370
H -4.450644 6.331427 -2.390959
H -5.109869 6.574530 -4.023041
H -4.404639 4.327895 -3.579626
H -2.824636 4.290448 -2.805018
H -3.405869 2.658693 -4.682121
H -3.099518 5.150339 -6.384544
H -4.399399 3.973009 -6.349771
H -2.813282 3.530927 -7.051480
H 0.915430 3.812565 -5.533527
C 6.019113 4.274951 -13.337400
C 6.244325 2.967453 -13.482679
C 6.448048 2.100115 -12.312966
O 6.460904 2.495956 -11.159501
O 6.617376 0.816786 -12.726927
C 6.717197 -0.181027 -11.695861
C 8.008784 -0.965661 -11.915749
C 5.512680 -1.108348 -11.763039
O 4.308975 -0.399991 -11.465194
C 3.194704 -1.281955 -11.273889
C 3.023020 -1.553997 -9.781488
C 1.940118 -0.640368 -11.887730
O 1.495720 0.496745 -11.152347
C 1.936937 1.738111 -11.711242
C 1.723828 2.839112 -10.667124
C 2.018583 4.215888 -11.244309
O 2.662570 2.639716 -9.603914
C 2.229666 2.432429 -8.319795
O 1.061285 2.454941 -7.976623
C 3.435496 2.197790 -7.464189
C 4.573119 1.866738 -8.067931
H 5.978257 4.740542 -12.347566
H 5.879292 4.935996 -14.190676
H 6.287888 2.501168 -14.464684
H 6.768596 0.289740 -10.700562
H 8.033006 -1.380219 -12.935902
H 8.117951 -1.789374 -11.202771
H 8.881793 -0.315255 -11.827694
H 5.642673 -1.932388 -11.051113
H 5.412498 -1.517962 -12.777038
H 3.357030 -2.219664 -11.818298
H 3.873550 -2.106428 -9.377709
H 2.928931 -0.634876 -9.188852
H 2.127056 -2.153712 -9.599827
H 1.118407 -1.360723 -11.852518
H 2.092243 -0.385726 -12.942435
H 1.340979 1.928811 -12.607663
H 2.999016 1.689643 -11.964330
H 0.693083 2.821601 -10.280094
H 1.331314 4.494225 -12.041269
H 3.028365 4.245449 -11.648238
H 2.005556 4.965247 -10.451463
H 5.325417 1.452421 -8.682169
