592
Molecule ID: homopoly_119747
O 8.553498 2.362472 3.264680
C 7.567102 3.009682 2.962083
O 7.327885 4.328358 3.211807
C 8.168970 4.937260 4.207737
C 7.748488 4.402989 5.569927
C 8.041452 5.356011 6.715694
F 9.366301 5.641825 6.739696
F 7.389169 6.521933 6.478006
C 7.579672 4.724734 8.023617
F 8.249857 3.549344 8.197466
F 6.261383 4.381890 7.885811
C 7.753083 5.618480 9.229711
F 7.127021 6.811668 9.027588
F 9.070013 5.906810 9.416126
C 7.173432 4.936532 10.459017
F 5.860998 4.639929 10.241613
F 7.789251 3.742788 10.668149
C 7.296413 5.801608 11.693753
F 6.645135 6.979642 11.499786
F 8.597658 6.120618 11.930009
C 6.715111 5.070016 12.890302
F 5.434465 4.704461 12.614397
F 7.398637 3.913277 13.103557
C 6.739771 5.912330 14.140774
F 8.006991 6.322883 14.428870
F 6.016584 7.049831 13.954122
C 6.173270 5.110811 15.295439
F 4.907966 4.697537 15.065807
F 6.147502 5.845692 16.435109
F 6.910008 4.007265 15.566318
C 6.408888 2.402490 2.380023
C 5.268703 1.963134 1.921004
H 8.002328 6.017436 4.137236
H 9.234788 4.766701 3.993846
H 6.674720 4.170736 5.548614
H 8.264165 3.449829 5.736456
H 4.476450 2.704267 1.866474
O 6.019398 2.128771 -2.467861
C 5.184178 1.252122 -2.677152
O 4.751527 0.892907 -3.909814
C 5.484850 1.582013 -4.936563
C 5.092921 1.138919 -6.351469
C 6.156956 1.679859 -7.307519
F 7.339709 1.080880 -6.986246
F 6.326427 3.006459 -7.006554
C 5.917630 1.568882 -8.807547
F 4.804469 2.279190 -9.148466
F 6.953636 2.198140 -9.432470
C 5.793170 0.138556 -9.306806
F 6.759431 -0.652735 -8.770750
F 4.613319 -0.371156 -8.858937
C 5.865860 0.093756 -10.823925
F 7.054356 0.642805 -11.216485
F 4.902201 0.889526 -11.367136
C 5.797473 -1.291920 -11.455918
F 6.807267 -2.067456 -10.979764
F 6.054629 -1.138498 -12.789018
C 4.470078 -2.009959 -11.294667
F 4.299175 -2.364557 -9.992160
F 3.443104 -1.164000 -11.580946
C 4.406603 -3.236170 -12.183650
F 5.451570 -4.069355 -11.912640
F 4.527133 -2.882102 -13.492228
C 3.092911 -3.959272 -11.971225
F 2.989852 -5.044953 -12.771434
F 2.023216 -3.175057 -12.229478
F 2.958316 -4.403559 -10.697048
C 4.551943 0.531896 -1.539848
C 3.866724 -0.625106 -1.597113
H 6.560565 1.387897 -4.791729
H 5.302120 2.659531 -4.839538
H 5.022102 0.053605 -6.402002
H 4.101908 1.535944 -6.589942
H 3.408481 -1.002200 -0.684301
O 2.281547 -4.584677 -3.575009
C 1.387063 -3.837654 -3.946941
O 0.112495 -4.202541 -4.240584
C -0.135346 -5.618014 -4.103562
C -1.606474 -5.854782 -4.428534
C -1.931953 -7.342443 -4.462428
F -1.225074 -7.922152 -5.466192
F -1.496409 -7.912647 -3.308680
C -3.425025 -7.590019 -4.635366
F -3.871351 -6.911513 -5.735323
F -4.089641 -7.040402 -3.577507
C -3.747266 -9.070060 -4.766203
F -3.168900 -9.576934 -5.888904
F -3.227240 -9.772551 -3.722397
C -5.248675 -9.270047 -4.813557
F -5.789654 -8.488921 -5.788166
F -5.796403 -8.841513 -3.641646
C -5.620416 -10.721488 -5.067948
F -5.130720 -11.109341 -6.279196
F -5.051527 -11.538618 -4.145536
C -7.128108 -10.902504 -5.061594
F -7.637153 -10.375678 -3.901683
F -7.690087 -10.171585 -6.066414
C -7.594490 -12.341593 -5.154733
F -8.966985 -12.347466 -5.085553
F -7.180954 -13.042177 -4.059430
C -7.162761 -13.049025 -6.424037
F -5.828133 -13.278111 -6.470156
F -7.487965 -12.348368 -7.534587
F -7.757079 -14.266315 -6.530114
C 1.551332 -2.360706 -4.017844
C 0.885220 -1.507499 -4.823537
H 0.515227 -6.170383 -4.792053
H 0.071070 -5.924397 -3.066972
H -1.841150 -5.395189 -5.398416
H -2.216250 -5.344485 -3.673379
H 1.169050 -0.461484 -4.758261
O -4.118940 1.015444 -4.761377
C -3.495030 -0.004132 -5.001896
O -4.027832 -1.135398 -5.528178
C -5.204001 -0.897079 -6.324968
C -5.701573 -2.247091 -6.832077
C -6.610611 -2.086133 -8.037368
F -7.734848 -1.433129 -7.639431
F -5.969489 -1.220534 -8.885946
C -6.970045 -3.336561 -8.847908
F -7.504122 -2.872978 -10.037086
F -5.836527 -3.997186 -9.214734
C -7.997890 -4.300638 -8.271112
F -9.085313 -3.611603 -7.849215
F -8.456012 -5.083588 -9.300396
C -7.482204 -5.246811 -7.200959
F -6.493532 -6.001408 -7.777481
F -6.868306 -4.600124 -6.183662
C -8.546944 -6.193188 -6.631192
F -7.934425 -7.399020 -6.370390
F -9.494851 -6.482910 -7.564173
C -9.207141 -5.777311 -5.313874
F -10.048507 -6.783232 -4.932425
F -8.248684 -5.719317 -4.338641
C -9.959443 -4.476953 -5.355519
F -10.826442 -4.474748 -6.399541
F -9.065300 -3.473054 -5.588746
C -10.698592 -4.245769 -4.053116
F -11.378925 -3.072823 -4.082078
F -9.867297 -4.193509 -2.985590
F -11.616328 -5.213310 -3.802670
C -1.994391 -0.131800 -4.932729
C -1.308389 0.801012 -4.235337
H -5.981101 -0.394825 -5.737738
H -4.906449 -0.252562 -7.162446
H -4.848476 -2.898561 -7.064301
H -6.246809 -2.673530 -5.985514
H -0.241400 0.847299 -4.386726
O -2.828260 5.861483 -1.981922
C -2.275199 5.048518 -2.710541
O -2.514692 4.874056 -4.036401
C -3.581709 5.609334 -4.650766
C -4.375641 4.681142 -5.576806
C -3.568188 4.219741 -6.792809
F -3.137330 5.319625 -7.477498
F -2.429299 3.598199 -6.348878
C -4.285115 3.260712 -7.752337
F -3.386617 2.842359 -8.695578
F -4.647116 2.133718 -7.077495
C -5.504318 3.854988 -8.434841
F -5.164314 4.997182 -9.083799
F -6.419736 4.221351 -7.499457
C -6.124720 2.854534 -9.394295
F -5.208277 2.464268 -10.319847
F -6.473817 1.725996 -8.717092
C -7.342573 3.434303 -10.090733
F -8.260419 3.830329 -9.165445
F -6.992677 4.562234 -10.767767
C -7.965046 2.424619 -11.039342
F -8.331883 1.309658 -10.349162
F -7.038664 2.012846 -11.947461
C -9.158933 3.012400 -11.754044
F -8.792088 4.115722 -12.465735
F -10.090006 3.442797 -10.858240
C -9.767998 1.976384 -12.679722
F -10.214338 0.885969 -12.008198
F -10.833865 2.482312 -13.351447
F -8.891993 1.535774 -13.615978
C -1.217737 4.071176 -2.265624
C -0.610287 4.317959 -1.089540
H -3.140382 6.439744 -5.216042
H -4.260423 6.027503 -3.901343
H -5.255259 5.239147 -5.911346
H -4.701724 3.801239 -5.017926
H -0.909773 5.204370 -0.522051
O -0.356007 -0.679842 1.144724
C -0.328345 0.128543 0.221018
O -0.276314 -0.199103 -1.090612
C -0.955346 -1.442706 -1.408545
C -0.428349 -2.692558 -0.697922
C -1.570861 -3.393077 0.041034
F -2.345076 -3.995868 -0.905267
F -2.366101 -2.467733 0.637618
C -1.065549 -4.399025 1.060444
F -0.346754 -3.760349 2.023873
F -0.183608 -5.243382 0.444733
C -2.201061 -5.194139 1.678605
F -3.129099 -4.379884 2.238490
F -2.843160 -5.910705 0.715820
C -1.649450 -6.127493 2.734149
F -0.644900 -6.884249 2.215174
F -1.103121 -5.418670 3.754472
C -2.720701 -7.058423 3.273282
F -3.159989 -7.889190 2.289057
F -3.826514 -6.326419 3.628959
C -2.269822 -7.865919 4.483564
F -2.112461 -6.998299 5.532406
F -3.301903 -8.679998 4.862695
C -1.001211 -8.687049 4.363785
F -0.752320 -9.283225 5.573063
F 0.070945 -7.871280 4.162502
C -1.085108 -9.755054 3.291688
F -2.100609 -10.615492 3.501677
F 0.053193 -10.485988 3.232721
F -1.263769 -9.229435 2.058085
C -0.425706 1.595292 0.473369
C -1.413486 1.792865 1.370180
H -0.839292 -1.582610 -2.487146
H -2.028551 -1.292247 -1.255091
H 0.419349 -2.474046 -0.042290
H -0.048591 -3.389753 -1.448960
H -2.122918 0.957225 1.455769
O -3.607103 4.799629 6.012590
C -3.253979 4.421329 4.910600
O -2.916703 5.225454 3.868582
C -3.065920 6.641971 4.086224
C -3.413481 7.229820 2.726133
C -4.192669 8.533288 2.819540
F -5.107628 8.422678 3.815974
F -3.363023 9.542499 3.162361
C -4.910504 8.803090 1.503213
F -4.006581 8.875377 0.484849
F -5.676318 7.709074 1.219368
C -5.779348 10.045921 1.528172
F -5.004300 11.157543 1.466796
F -6.474128 10.134289 2.695080
C -6.762888 9.972589 0.376891
F -7.622353 8.936186 0.592496
F -6.110901 9.677433 -0.783445
C -7.547271 11.257171 0.200074
F -8.081222 11.666480 1.381673
F -6.705009 12.246700 -0.199979
C -8.660801 11.039892 -0.818549
F -9.565271 10.155082 -0.315899
F -8.155834 10.453758 -1.939034
C -9.336850 12.333830 -1.184678
F -9.787535 12.977388 -0.073262
F -8.442746 13.179894 -1.766368
C -10.484523 12.049676 -2.135500
F -11.452936 11.302735 -1.558814
F -11.075053 13.196845 -2.551581
F -10.087751 11.392927 -3.247693
C -3.123072 2.980455 4.506816
C -3.328314 2.065280 5.489374
H -2.119479 7.048199 4.457496
H -3.864599 6.837133 4.816900
H -2.489605 7.380610 2.152776
H -3.994361 6.481813 2.175508
H -3.595402 2.453709 6.478316
O -2.418658 -3.117132 8.222506
C -2.720031 -2.358302 7.308482
O -3.805505 -2.501274 6.498766
C -4.573967 -3.678557 6.806572
C -5.649994 -3.847392 5.741438
C -6.629742 -4.953267 6.120005
F -5.971682 -6.131963 6.225697
F -7.085121 -4.678082 7.382485
C -7.847279 -5.070365 5.196994
F -8.442253 -3.829833 5.163560
F -8.776193 -5.895446 5.755938
C -7.584195 -5.500346 3.762925
F -8.725241 -5.253351 3.043445
F -6.632691 -4.700705 3.206138
C -7.222954 -6.966645 3.592611
F -8.174671 -7.751934 4.167286
F -6.065104 -7.251534 4.236794
C -7.088478 -7.318322 2.117064
F -6.167177 -6.496930 1.539141
F -8.260646 -7.082920 1.471234
C -6.667275 -8.767085 1.919091
F -7.547697 -9.600879 2.535669
F -5.468282 -8.979493 2.525082
C -6.583570 -9.096471 0.444660
F -7.812920 -8.977485 -0.133502
F -5.781853 -8.202398 -0.199562
C -6.046416 -10.496470 0.250410
F -6.796535 -11.437480 0.863771
F -4.782197 -10.620533 0.716465
F -6.000910 -10.826264 -1.065616
C -1.901350 -1.178406 6.911226
C -0.562547 -1.361087 6.978053
H -3.925130 -4.561783 6.814130
H -5.020384 -3.553306 7.797033
H -5.153875 -4.069115 4.790598
H -6.181767 -2.897283 5.624013
H -0.190654 -2.339365 7.304961
O 5.456721 -1.455817 0.494399
C 5.732073 -0.476652 1.183024
O 6.558617 -0.507444 2.259447
C 7.459628 -1.628169 2.358929
C 6.838600 -3.024761 2.476067
C 5.950030 -3.199470 3.695816
F 4.984298 -2.245805 3.708844
F 6.707566 -3.005262 4.807672
C 5.310033 -4.587882 3.734178
F 4.472702 -4.734269 2.668795
F 6.280391 -5.533834 3.571406
C 4.562671 -4.814026 5.033222
F 3.643962 -3.829661 5.227903
F 5.430088 -4.733195 6.082109
C 3.865307 -6.159585 5.039770
F 4.720488 -7.119357 4.573937
F 2.830522 -6.149875 4.155577
C 3.390362 -6.613363 6.409198
F 4.474476 -6.848429 7.203837
F 2.791462 -7.835908 6.254048
C 2.438933 -5.671436 7.122269
F 1.408413 -5.350446 6.296844
F 3.074458 -4.504974 7.403681
C 1.921350 -6.296357 8.401439
F 2.957527 -6.682364 9.201345
F 1.227632 -7.437996 8.123750
C 1.031733 -5.315072 9.140198
F -0.007916 -4.906929 8.378617
F 0.509836 -5.875819 10.260297
F 1.704398 -4.212566 9.537554
C 5.198141 0.899839 0.925284
C 4.649789 1.248373 -0.263123
H 8.111994 -1.604433 1.480084
H 8.099007 -1.441780 3.230238
H 7.667272 -3.742688 2.547297
H 6.276227 -3.288916 1.578399
H 4.333976 2.289853 -0.397079
O 4.564528 -2.257744 -4.821971
C 4.691343 -1.971833 -3.642014
O 5.844657 -2.002107 -2.922407
C 7.074776 -2.281484 -3.606720
C 8.092764 -1.190678 -3.246962
C 8.779059 -1.452809 -1.911543
F 7.818234 -1.886392 -1.045421
F 9.621612 -2.509237 -2.071869
C 9.505895 -0.289396 -1.208770
F 9.860666 -0.765916 0.038555
F 8.636808 0.724380 -0.947348
C 10.794547 0.261442 -1.811820
F 11.662517 -0.780237 -2.016383
F 11.413593 1.037577 -0.869635
C 10.734272 1.078982 -3.087813
F 12.000587 1.485958 -3.405919
F 10.377068 0.242092 -4.108429
C 9.812956 2.291579 -3.123316
F 8.540646 1.854215 -2.976514
F 9.860428 2.806633 -4.389698
C 10.132473 3.388458 -2.124962
F 9.980812 2.910217 -0.861926
F 11.440222 3.738141 -2.232668
C 9.238816 4.594785 -2.332109
F 7.930850 4.249835 -2.192699
F 9.368169 5.074894 -3.601145
C 9.595165 5.674761 -1.331847
F 10.874685 6.088679 -1.455779
F 9.423980 5.270367 -0.051734
F 8.805168 6.765896 -1.506923
C 3.599035 -1.469668 -2.748132
C 2.299247 -1.716918 -2.957520
H 6.934498 -2.289065 -4.698731
H 7.414681 -3.275798 -3.300749
H 7.569246 -0.237268 -3.209588
H 8.830624 -1.171853 -4.047461
H 1.611058 -1.285319 -2.219491
O -0.686206 -3.106609 -7.749537
C 0.138882 -2.671801 -6.965744
O 1.471809 -2.927100 -6.977042
C 1.964004 -3.743807 -8.035404
C 3.358546 -4.221142 -7.620645
C 3.339719 -5.670946 -7.154978
F 3.207157 -6.464023 -8.257521
F 2.206966 -5.876218 -6.422294
C 4.544247 -6.114658 -6.330868
F 4.335165 -7.396547 -5.919362
F 4.629083 -5.367647 -5.200275
C 5.857350 -6.045086 -7.086250
F 5.889413 -6.973991 -8.078542
F 5.976050 -4.838630 -7.727520
C 7.074183 -6.179072 -6.175735
F 7.104212 -5.101893 -5.334799
F 8.203678 -6.062425 -6.943774
C 7.149353 -7.463143 -5.374574
F 6.929787 -8.519396 -6.214309
F 6.139523 -7.496537 -4.465915
C 8.469631 -7.685126 -4.649919
F 9.482518 -7.828292 -5.550431
F 8.381191 -8.892296 -4.012505
C 8.815557 -6.603929 -3.651160
F 7.738867 -6.320000 -2.865870
F 9.114568 -5.441145 -4.302205
C 9.995079 -7.028986 -2.800027
F 10.322050 -6.055858 -1.914763
F 9.742235 -8.140593 -2.076390
F 11.100298 -7.266563 -3.542168
C -0.146216 -1.739721 -5.814817
C -1.341936 -1.110629 -5.853597
H 1.283111 -4.574072 -8.265286
H 2.043351 -3.099709 -8.918314
H 4.016986 -4.149024 -8.490222
H 3.748019 -3.573055 -6.834259
H -1.992322 -1.354181 -6.699588
O -2.774296 0.984427 -1.340419
C -2.836297 1.712209 -2.331647
O -3.806614 2.646601 -2.523674
C -4.657534 2.781649 -1.375568
C -5.784304 3.760488 -1.657498
C -7.055671 3.316021 -0.959062
F -7.316566 2.077098 -1.480786
F -8.082619 4.098562 -1.385281
C -7.062188 3.197969 0.562189
F -8.072677 2.355628 0.932877
F -5.917788 2.602205 0.994915
C -7.279265 4.536285 1.236720
F -8.490488 5.035506 0.889798
F -6.357739 5.428808 0.788409
C -7.168900 4.375935 2.740527
F -5.873198 4.109859 3.064171
F -7.884136 3.298036 3.156322
C -7.660192 5.614206 3.476745
F -8.952485 5.864267 3.129787
F -6.948477 6.707052 3.095730
C -7.570359 5.419115 4.973952
F -6.302056 5.026446 5.285039
F -8.368114 4.379275 5.345497
C -7.908125 6.636388 5.809790
F -7.770938 6.292118 7.130282
F -6.990545 7.622254 5.598544
C -9.303665 7.168567 5.564426
F -9.647228 8.106821 6.476710
F -9.405286 7.761935 4.355843
F -10.240592 6.198654 5.623649
C -1.716035 1.861856 -3.303654
C -0.923436 2.939567 -3.131492
H -5.039016 1.786636 -1.106424
H -4.050952 3.164993 -0.545023
H -5.970571 3.787622 -2.736008
H -5.494353 4.778634 -1.374938
H -0.055671 3.091222 -3.765103
O 2.810437 4.225245 0.233156
C 1.848823 4.485562 -0.485674
O 1.742161 5.547262 -1.329078
C 2.755167 6.550206 -1.203012
C 2.929540 7.213309 -2.566104
C 3.683273 8.537510 -2.483219
F 4.693346 8.411610 -1.588054
F 4.284709 8.734308 -3.692685
C 2.782408 9.734087 -2.163366
F 1.907757 9.871594 -3.211866
F 2.001227 9.454942 -1.086605
C 3.556739 11.034508 -1.968605
F 2.785512 12.091656 -2.358115
F 4.621775 11.051101 -2.817483
C 4.016216 11.263776 -0.533152
F 4.425354 10.100975 0.031889
F 5.111231 12.078949 -0.541195
C 2.939470 11.934549 0.317825
F 2.692869 13.184869 -0.157178
F 1.765834 11.263301 0.216845
C 3.328681 12.011714 1.780465
F 3.338232 10.752807 2.308491
F 4.612596 12.462074 1.895508
C 2.437156 12.916216 2.611814
F 2.570717 14.212674 2.203268
F 2.891561 12.895554 3.905990
C 0.972958 12.516342 2.585795
F 0.409545 12.703618 1.371600
F 0.242202 13.253847 3.458032
F 0.789306 11.214779 2.919679
C 0.575791 3.671557 -0.524590
C 0.644230 2.488316 0.119095
H 3.721125 6.122081 -0.897031
H 2.432706 7.263934 -0.433375
H 3.491517 6.520661 -3.203977
H 1.966024 7.348224 -3.072858
H 1.612745 2.136268 0.488956
O -0.235033 4.677340 2.097841
C -0.623883 3.770444 2.830821
O -0.133218 3.498703 4.070416
C 0.878424 4.426647 4.489570
C 1.255676 4.235633 5.956199
C 0.089005 4.506024 6.896197
F -0.580570 5.597272 6.429025
F -0.785000 3.467821 6.809626
C 0.460392 4.749047 8.361849
F -0.674122 4.973960 9.078918
F 1.192357 5.896724 8.454237
C 1.248964 3.603893 8.967705
F 0.627132 2.417772 8.730216
F 2.456411 3.513825 8.339631
C 1.456281 3.784275 10.465466
F 0.256931 3.731551 11.103405
F 1.973358 5.015153 10.721994
C 2.389011 2.714825 11.015621
F 1.935292 1.483595 10.656981
F 3.624955 2.835718 10.457516
C 2.492625 2.792999 12.526263
F 1.281360 2.470855 13.071136
F 2.721805 4.083774 12.911233
C 3.570996 1.914639 13.138769
F 3.505017 2.031617 14.500196
F 4.811152 2.383618 12.801418
C 3.467728 0.459639 12.741022
F 3.786453 0.279009 11.440585
F 4.324250 -0.305768 13.456220
F 2.224928 -0.042579 12.929496
C -1.659191 2.783673 2.425977
C -2.767518 2.565241 3.163463
H 1.772428 4.266317 3.872948
H 0.531347 5.458872 4.336289
H 1.607435 3.206156 6.099767
H 2.079309 4.921275 6.180011
H -3.497551 1.846468 2.779792
O -2.272653 -1.055172 3.959354
C -3.153743 -0.291711 4.325057
O -4.397850 -0.195955 3.753052
C -4.784962 -1.313142 2.913276
C -5.306263 -0.879580 1.531022
C -5.738540 -2.127691 0.746610
F -6.760035 -2.721920 1.415978
F -4.703509 -3.018895 0.805608
C -6.094815 -1.964481 -0.731353
F -6.080127 -3.213603 -1.298630
F -5.106922 -1.267832 -1.372554
C -7.447265 -1.317299 -1.002898
F -7.442888 -0.038522 -0.558669
F -8.414729 -1.949289 -0.286574
C -7.779938 -1.397372 -2.490998
F -7.717762 -2.722248 -2.865078
F -6.824441 -0.796080 -3.242934
C -9.168062 -0.921157 -2.903335
F -10.089191 -1.489892 -2.065246
F -9.430115 -1.483714 -4.133580
C -9.470180 0.561798 -3.037672
F -10.792505 0.663612 -3.380467
F -9.379866 1.177287 -1.835612
C -8.637426 1.249320 -4.105672
F -7.347852 1.383186 -3.696694
F -8.571842 0.485369 -5.234746
C -9.218665 2.605240 -4.452000
F -9.336484 3.416012 -3.380119
F -8.427263 3.250067 -5.346700
F -10.444023 2.511274 -5.020219
C -3.026121 0.622903 5.500427
C -2.511077 0.120464 6.645989
H -5.590654 -1.825434 3.449038
H -3.964081 -2.027414 2.787382
H -4.514888 -0.335780 1.000570
H -6.150898 -0.190340 1.664673
H -2.405911 0.779554 7.507120
O 2.056285 -1.370374 8.253191
C 1.775567 -0.471775 7.473767
O 2.560173 0.607497 7.192693
C 3.825663 0.666049 7.870319
C 4.868048 -0.129663 7.096453
C 6.277515 0.346953 7.428769
F 6.396459 1.639892 7.008336
F 6.432069 0.364434 8.774864
C 7.340333 -0.518399 6.767102
F 7.293598 -1.772402 7.302942
F 6.996688 -0.671758 5.449256
C 8.753882 0.025162 6.813503
F 8.813637 1.176579 6.086189
F 9.559341 -0.861392 6.155104
C 9.308824 0.285951 8.201521
F 8.600186 1.266877 8.798674
F 9.150007 -0.810197 8.991217
C 10.788910 0.658960 8.124431
F 10.992524 1.655132 7.221409
F 11.462319 -0.428183 7.624465
C 11.430096 1.030975 9.456719
F 12.787624 0.875406 9.328140
F 11.054973 0.143464 10.415574
C 11.169091 2.455935 9.887010
F 9.842315 2.699554 10.010190
F 11.611675 3.325015 8.933676
C 11.854516 2.735833 11.208758
F 11.644711 4.019289 11.593594
F 13.195267 2.556282 11.154780
F 11.380107 1.951462 12.203133
C 0.496994 -0.413796 6.683777
C 0.421666 0.363515 5.637044
H 3.735446 0.322750 8.907564
H 4.095226 1.724956 7.911934
H 4.679851 -0.014672 6.022148
H 4.749322 -1.194251 7.330201
H 0.366953 0.958423 4.757206
