432
Molecule ID: homopoly_5373781
C -7.562334 0.662693 6.462721
C -7.230217 0.592350 7.937612
O -5.905996 1.094368 8.213832
C -4.905497 0.174910 8.103303
O -5.017724 -0.949539 7.630251
C -3.690985 0.597851 8.717717
C -2.642847 0.943029 9.425147
C -2.793058 2.067832 10.389338
C -3.924136 2.156122 11.227801
C -4.019072 3.140235 12.214503
C -2.991192 4.062162 12.374651
C -1.883188 4.003479 11.526532
O -0.847854 4.878766 11.757501
C -0.840236 5.886075 10.743214
C -1.765797 3.019174 10.543782
H -7.673896 1.703038 6.149096
H -6.791484 0.179572 5.855268
H -8.510273 0.153791 6.293480
H -7.922674 1.194075 8.517922
H -7.339324 -0.435339 8.304991
H -4.716237 1.412151 11.156885
H -4.891700 3.164836 12.861942
H -3.058582 4.802320 13.162721
H -1.803462 6.412933 10.698127
H -0.054979 6.609981 10.981635
H -0.607155 5.422674 9.775071
H -0.893557 2.980729 9.911026
C -2.362672 -2.658617 6.116405
C -1.954380 -1.250208 5.708407
O -0.830012 -0.837777 6.502985
C -0.863733 0.464045 6.894047
O -1.609963 1.345686 6.504522
C 0.056318 0.592115 8.047888
C 1.242558 1.261806 7.886134
C 2.234931 0.969574 8.981783
C 3.150103 -0.077644 8.772498
C 4.139766 -0.371842 9.712744
C 4.217861 0.379419 10.882811
C 3.325048 1.426621 11.112535
O 3.301524 2.215624 12.229927
C 4.262648 1.904360 13.230813
C 2.345117 1.739644 10.148417
H -1.506115 -3.343277 6.124620
H -3.140025 -3.042304 5.448355
H -2.757386 -2.631762 7.132856
H -2.814923 -0.595143 5.876499
H -1.668613 -1.199717 4.654974
H 3.100567 -0.680799 7.867201
H 4.827051 -1.196793 9.538689
H 5.002253 0.123204 11.591133
H 4.152960 0.878886 13.601552
H 4.092739 2.576868 14.074268
H 5.281753 2.079717 12.867599
H 1.661649 2.567095 10.326653
C 1.305258 6.566964 7.823651
C 0.020132 6.592550 7.015110
O 0.056804 5.569166 6.020204
C -0.215720 4.306564 6.451828
O -0.523476 3.991412 7.592442
C 0.033097 3.299609 5.354061
C -0.839861 3.293266 4.287971
C -1.865187 4.404784 4.279990
C -1.661535 5.492453 3.419124
C -2.566692 6.546951 3.391360
C -3.658693 6.543160 4.251255
C -3.850583 5.500758 5.167133
O -4.931360 5.641685 5.988653
C -4.949589 4.822177 7.164489
C -2.958142 4.422497 5.162950
H 1.299308 5.725401 8.517645
H 2.183890 6.422350 7.188970
H 1.427863 7.482852 8.399956
H -0.868818 6.516217 7.646415
H -0.051717 7.546232 6.488643
H -0.797737 5.520820 2.764288
H -2.411068 7.378873 2.707727
H -4.364188 7.370503 4.234611
H -4.003222 4.897111 7.703863
H -5.189369 3.790427 6.911960
H -5.739210 5.201014 7.810853
H -3.105683 3.578373 5.841796
C -4.065033 -0.985008 -0.975545
C -3.765534 0.306314 -0.248454
O -2.361496 0.437175 -0.015859
C -1.937688 -0.001912 1.202799
O -2.591510 -0.634239 2.004475
C -0.529014 0.530820 1.408616
C 0.390765 -0.377233 0.951044
C 0.032157 -1.784143 1.331661
C 0.151750 -2.123415 2.698865
C -0.196869 -3.396556 3.145568
C -0.668824 -4.338034 2.238818
C -0.782258 -4.020950 0.880272
O -1.220860 -4.884251 -0.086424
C -1.437932 -6.227030 0.334846
C -0.427582 -2.745435 0.424057
H -3.762154 -1.843473 -0.371629
H -3.511273 -1.025252 -1.916269
H -5.133083 -1.061207 -1.193921
H -4.345736 0.374511 0.674190
H -4.077043 1.157912 -0.866109
H 0.516025 -1.395229 3.418911
H -0.070666 -3.652177 4.194915
H -0.928911 -5.313405 2.629453
H -0.513423 -6.676647 0.718676
H -1.748497 -6.809035 -0.534376
H -2.242549 -6.290495 1.074003
H -0.526541 -2.506236 -0.625297
C 5.975904 3.601880 -0.801909
C 4.618491 3.051514 -1.215199
O 4.636682 1.640918 -1.477053
C 4.576109 0.854802 -0.392580
O 4.697769 1.242396 0.766478
C 3.950742 -0.469732 -0.748525
C 4.656995 -1.379760 -1.522658
C 6.112907 -1.642636 -1.115266
C 7.028200 -2.240342 -1.996709
C 8.363123 -2.449399 -1.635629
C 8.821060 -2.069445 -0.379110
C 7.946939 -1.506377 0.531642
O 8.480188 -1.166885 1.746822
C 7.781348 -0.131331 2.447253
C 6.603824 -1.352587 0.172230
H 6.291731 3.196553 0.168859
H 6.739581 3.309306 -1.518556
H 5.935771 4.690517 -0.738296
H 4.311118 3.551213 -2.140612
H 3.861285 3.264898 -0.471322
H 6.747724 -2.542955 -2.998059
H 9.048956 -2.909810 -2.351776
H 9.867124 -2.211370 -0.116669
H 8.422264 0.228029 3.255689
H 7.593203 0.723171 1.791386
H 6.862911 -0.508166 2.898844
H 5.921887 -0.968828 0.920107
C 7.981470 -0.338105 -7.509959
C 7.009492 -1.485097 -7.694630
O 5.783173 -1.230403 -7.006033
C 5.555209 -1.989807 -5.902350
O 6.451027 -2.641564 -5.366118
C 4.107114 -2.038759 -5.395843
C 3.020235 -1.860662 -6.204754
C 3.229648 -1.149664 -7.519879
C 3.481426 -1.823464 -8.724691
C 3.823312 -1.106882 -9.866768
C 3.900748 0.282919 -9.838040
C 3.614522 0.981298 -8.663828
O 3.620316 2.337386 -8.514455
C 4.273339 3.081552 -9.534796
C 3.269228 0.262739 -7.518958
H 9.009212 -0.671210 -7.680821
H 7.910671 0.090038 -6.508405
H 7.776535 0.451896 -8.245861
H 6.768044 -1.580258 -8.758240
H 7.464963 -2.440077 -7.405964
H 3.450263 -2.902902 -8.786573
H 4.020259 -1.640124 -10.802435
H 4.142045 0.805458 -10.760365
H 4.333853 4.119484 -9.192992
H 3.688409 3.067669 -10.463046
H 5.296712 2.720383 -9.700282
H 3.060747 0.804219 -6.597023
C -2.147761 -6.234212 -3.648336
C -1.159255 -5.115314 -3.385846
O -0.631370 -4.568405 -4.599142
C -1.449801 -3.732349 -5.295614
O -2.622721 -3.523040 -5.038827
C -0.693372 -3.054481 -6.417220
C -1.394224 -2.389733 -7.406235
C -0.601929 -1.845314 -8.557917
C -0.210157 -0.507957 -8.575103
C 0.395210 0.039920 -9.704686
C 0.654853 -0.755418 -10.818594
C 0.346064 -2.107961 -10.780427
O 0.734569 -2.827797 -11.883015
C 1.313167 -4.088263 -11.535096
C -0.306704 -2.643935 -9.676763
H -2.396229 -6.737036 -2.713547
H -3.085786 -5.846970 -4.068220
H -1.728136 -6.959689 -4.347504
H -1.596828 -4.317499 -2.771819
H -0.305219 -5.515444 -2.832170
H -0.378551 0.120659 -7.712421
H 0.712765 1.073518 -9.706126
H 1.134954 -0.323391 -11.687806
H 0.538729 -4.840976 -11.363744
H 1.930003 -4.400142 -12.384410
H 1.977850 -4.004661 -10.666301
H -0.604852 -3.689406 -9.683011
C -1.600076 4.121996 -7.823746
C -1.578492 2.780091 -8.521293
O -2.222631 1.774815 -7.728548
C -3.076353 0.929109 -8.381853
O -3.330657 0.959111 -9.577488
C -3.712228 -0.042237 -7.418334
C -4.478720 0.468006 -6.409679
C -4.608914 1.972277 -6.296104
C -5.532283 2.659838 -7.093785
C -5.728141 4.033550 -6.925188
C -4.992585 4.730233 -5.959086
C -4.073038 4.056383 -5.158163
O -3.280146 4.632045 -4.195449
C -3.590479 5.970426 -3.816274
C -3.884264 2.685402 -5.328560
H -2.629146 4.464375 -7.696836
H -1.136582 4.085456 -6.827227
H -1.069324 4.875626 -8.424703
H -0.535373 2.491940 -8.649193
H -2.031020 2.881019 -9.514461
H -6.122146 2.124071 -7.840632
H -6.453634 4.557745 -7.542502
H -5.177261 5.798382 -5.860417
H -3.418400 6.665660 -4.643386
H -4.612263 6.036551 -3.435659
H -2.909546 6.241011 -3.005852
H -3.168610 2.185293 -4.687584
C -1.932604 -4.762056 10.766030
C -2.490123 -3.414762 11.190236
O -2.040677 -2.408330 10.287552
C -2.227330 -1.133508 10.727104
O -2.872812 -0.828611 11.724366
C -1.685463 -0.135995 9.737488
C -0.409714 -0.230281 9.240670
C 0.467375 -1.258001 9.893591
C 0.805865 -1.097189 11.252104
C 1.564108 -2.064583 11.918677
C 1.990762 -3.200543 11.226974
C 1.663209 -3.388571 9.879864
O 2.114128 -4.571387 9.357878
C 1.715368 -4.884017 8.026792
C 0.884546 -2.423171 9.219502
H -2.229941 -5.004150 9.735909
H -0.839419 -4.766468 10.807118
H -2.310056 -5.538156 11.440497
H -2.153183 -3.198113 12.211153
H -3.583704 -3.455926 11.169946
H 0.499267 -0.220925 11.805327
H 1.812605 -1.920753 12.968922
H 2.586830 -3.950027 11.745741
H 2.142542 -4.170745 7.317247
H 0.625193 -4.925639 7.952696
H 2.109649 -5.875831 7.792158
H 0.598913 -2.558571 8.178204
C 6.246211 2.957848 6.450956
C 5.475605 1.892772 7.207824
O 4.181292 1.640557 6.654420
C 3.227814 2.535226 7.025437
O 3.402778 3.539212 7.701748
C 1.818254 2.024677 6.681379
C 1.360384 2.644036 5.529981
C 2.443138 3.155861 4.597394
C 3.335909 2.242829 3.998514
C 4.464393 2.700387 3.328634
C 4.723990 4.060900 3.197852
C 3.847460 4.973129 3.781823
O 4.124186 6.306248 3.633375
C 4.554657 6.881689 4.872604
C 2.710614 4.531845 4.460451
H 7.252026 3.067720 6.856087
H 6.324027 2.693345 5.392626
H 5.753256 3.928195 6.517853
H 5.396762 2.161155 8.267541
H 6.023315 0.944782 7.156673
H 3.174799 1.169450 4.143314
H 5.179834 1.980932 2.935636
H 5.583053 4.404424 2.643317
H 3.974471 6.523767 5.728952
H 5.612329 6.661321 5.027338
H 4.425249 7.963954 4.796686
H 2.065922 5.283460 4.900710
C -5.422756 2.075418 4.055697
C -4.424443 0.929281 4.127564
O -3.061863 1.348204 4.224879
C -2.531107 1.912318 3.119680
O -3.177257 2.247761 2.133830
C -1.035419 2.186265 3.262290
C -0.371773 1.884003 2.081580
C 0.039035 3.094151 1.291795
C -0.933169 3.773033 0.533031
C -0.624965 4.936566 -0.173037
C 0.666574 5.446346 -0.123816
C 1.647121 4.774394 0.597704
O 2.952148 5.166163 0.688151
C 3.223226 6.537347 0.415847
C 1.339815 3.584755 1.274315
H -5.266944 2.692849 3.166730
H -5.346066 2.722279 4.931970
H -6.442682 1.694080 4.002638
H -4.647830 0.346962 5.027128
H -4.565473 0.252861 3.272748
H -1.959311 3.411793 0.479674
H -1.395966 5.430587 -0.745190
H 0.894761 6.332489 -0.697134
H 3.125660 6.744800 -0.654908
H 4.264307 6.734379 0.698090
H 2.579763 7.198769 1.009123
H 2.127429 3.041770 1.778795
C 1.433699 3.107098 -3.030548
C 0.361154 2.227271 -2.431648
O 0.722514 1.662968 -1.152311
C 1.398410 0.494976 -1.221585
O 1.746164 -0.059351 -2.254680
C 1.627043 -0.151916 0.129383
C 2.832290 -0.825005 0.194324
C 3.149415 -1.758342 1.334531
C 3.789469 -1.278693 2.481565
C 4.159359 -2.138142 3.520745
C 3.822517 -3.496469 3.446501
C 3.149807 -3.980324 2.342984
O 2.690607 -5.261638 2.187182
C 2.598561 -6.065476 3.355683
C 2.866842 -3.118989 1.267336
H 2.420919 2.633530 -2.999125
H 1.200816 3.292578 -4.086976
H 1.492933 4.071944 -2.536847
H -0.557592 2.806678 -2.276574
H 0.105016 1.449293 -3.138364
H 4.055246 -0.230334 2.558778
H 4.701293 -1.756415 4.376336
H 4.116988 -4.146996 4.265380
H 1.960685 -6.920695 3.108775
H 3.584925 -6.450947 3.633671
H 2.132671 -5.536196 4.191340
H 2.349092 -3.533934 0.398959
C 7.874636 1.535608 -3.455052
C 6.502171 1.367159 -4.087302
O 5.977036 0.118971 -3.663167
C 4.628342 -0.028382 -3.675098
O 3.813316 0.733624 -4.147894
C 4.329600 -1.362099 -3.014204
C 4.077374 -2.383673 -3.908878
C 4.106605 -3.839925 -3.492140
C 4.614506 -4.815389 -4.374284
C 4.724436 -6.156415 -4.029017
C 4.391841 -6.566453 -2.753330
C 3.930457 -5.634538 -1.829267
O 3.640917 -5.913943 -0.525542
C 4.284799 -7.075363 0.000517
C 3.735005 -4.305159 -2.225227
H 7.834051 1.360794 -2.372275
H 8.590792 0.805493 -3.860328
H 8.259238 2.545552 -3.637249
H 5.849496 2.198400 -3.779878
H 6.585186 1.374317 -5.181028
H 4.972457 -4.549932 -5.357759
H 5.094433 -6.875026 -4.754139
H 4.509017 -7.611593 -2.496384
H 5.357573 -7.088023 -0.229697
H 3.797214 -7.986192 -0.356774
H 4.195760 -7.067815 1.089575
H 3.325323 -3.605179 -1.499354
C -1.875891 -0.241834 -4.278901
C -0.944435 -1.063812 -3.429165
O 0.176362 -1.687122 -4.088380
C 0.834717 -1.092166 -5.131490
O 0.626999 0.009435 -5.584156
C 1.595319 -2.172692 -5.875637
C 0.837210 -3.198910 -6.403021
C 1.375881 -4.499284 -7.021486
C 2.723348 -4.810811 -7.182093
C 3.183114 -6.030755 -7.699852
C 2.276516 -7.022435 -8.032337
C 0.928177 -6.789049 -7.844954
O 0.082645 -7.824669 -8.150538
C -0.882011 -8.073823 -7.133061
C 0.478140 -5.542274 -7.390188
H -2.278135 -0.843140 -5.097092
H -2.716719 0.131609 -3.684808
H -1.387978 0.633611 -4.719087
H -1.525080 -1.890791 -3.013977
H -0.590348 -0.501552 -2.568692
H 3.495368 -4.108880 -6.911556
H 4.248437 -6.195699 -7.812608
H 2.626992 -7.976442 -8.415987
H -1.679294 -7.325441 -7.148501
H -0.420408 -8.116144 -6.134484
H -1.342616 -9.049505 -7.329653
H -0.600882 -5.400574 -7.308346
C -4.539173 -6.636203 -7.544157
C -5.201095 -5.332548 -7.957974
O -4.522661 -4.178396 -7.465154
C -3.322881 -3.883171 -8.038821
O -2.675095 -4.624754 -8.763578
C -2.880536 -2.485532 -7.639925
C -3.776704 -1.466227 -7.881164
C -4.801348 -1.749618 -8.972536
C -4.326824 -1.978708 -10.276663
C -5.205727 -2.249438 -11.319347
C -6.569167 -2.270123 -11.076319
C -7.075412 -2.021250 -9.795982
O -8.439913 -2.040601 -9.726349
C -9.022279 -2.139052 -8.433548
C -6.192293 -1.763494 -8.740416
H -5.220895 -7.479569 -7.700764
H -4.223041 -6.599843 -6.494850
H -3.655342 -6.822078 -8.153987
H -6.213254 -5.306397 -7.539639
H -5.309032 -5.270941 -9.048826
H -3.260795 -1.940413 -10.492715
H -4.815675 -2.431834 -12.319729
H -7.258039 -2.475902 -11.893058
H -8.746287 -1.291474 -7.794375
H -8.769951 -3.097773 -7.966490
H -10.112734 -2.109652 -8.556034
H -6.557450 -1.553290 -7.748587
C -9.311213 -0.254672 -3.889344
C -8.728748 0.849508 -4.750185
O -7.557621 0.371951 -5.430923
C -6.401265 0.464267 -4.706282
O -6.278247 0.969881 -3.599859
C -5.334185 -0.279547 -5.441414
C -5.389264 -1.560644 -5.197829
C -5.919505 -2.784983 -4.667030
C -7.163587 -3.233521 -5.132551
C -7.811895 -4.303558 -4.496040
C -7.243635 -4.886389 -3.377787
C -6.028848 -4.405321 -2.878539
O -5.434611 -4.888539 -1.746721
C -6.354293 -5.037719 -0.661505
C -5.348231 -3.376431 -3.549766
H -10.227581 0.082230 -3.395437
H -9.533341 -1.144326 -4.487804
H -8.598881 -0.569523 -3.115989
H -9.453122 1.133822 -5.513840
H -8.517533 1.747354 -4.161597
H -7.645403 -2.751520 -5.963051
H -8.775930 -4.648364 -4.875586
H -7.759565 -5.707729 -2.891869
H -5.775634 -5.113830 0.263074
H -7.018115 -4.170205 -0.567907
H -6.939454 -5.957034 -0.772821
H -4.403522 -3.017162 -3.145423
