688
Molecule ID: homopoly_10108392
C -7.125415 7.346075 0.095776
C -6.282944 8.602992 0.156072
C -5.099302 8.522112 -0.796804
C -4.344270 9.846527 -0.878567
C -4.775654 10.750500 -2.034019
C -4.249139 10.300923 -3.384820
C -4.477328 11.386661 -4.448316
C -3.863423 11.029590 -5.796029
O -2.470663 10.677459 -5.619644
C -1.534924 11.370071 -6.315978
O -1.679451 12.008568 -7.339595
C -0.204366 11.074809 -5.826748
C 0.934721 10.986892 -5.219760
C 1.009576 11.911615 -4.049372
C 1.850824 13.021665 -4.176367
C 2.028856 13.882549 -3.095157
C 1.358532 13.635016 -1.890588
O 1.538123 14.506928 -0.865121
C 0.526116 12.514815 -1.759007
O -0.138335 12.340156 -0.577651
C 0.366388 11.653499 -2.823067
H -8.054905 7.538312 -0.453840
H -7.418096 7.027943 1.101746
H -6.604631 6.498437 -0.370928
H -5.908363 8.735915 1.181250
H -6.906488 9.472909 -0.066568
H -4.409682 7.773731 -0.378029
H -5.391084 8.153917 -1.787998
H -4.477154 10.401074 0.072054
H -3.261359 9.644323 -0.962805
H -4.364254 11.761949 -1.817902
H -5.877828 10.856691 -2.054702
H -4.723687 9.374698 -3.703254
H -3.184278 10.093698 -3.304773
H -5.563562 11.564223 -4.562733
H -4.028450 12.320455 -4.087834
H -4.353740 10.140081 -6.204401
H -4.012490 11.861805 -6.504443
H 2.399926 13.187495 -5.112886
H 2.669250 14.749698 -3.194584
H 1.146673 14.046130 -0.084439
H -0.927732 11.774128 -0.785105
H -0.228313 10.745542 -2.711609
C 6.911686 3.734143 -13.803033
C 6.663487 4.571526 -12.568042
C 7.028110 6.037361 -12.791361
C 6.562642 6.942887 -11.647600
C 7.190151 6.573637 -10.316651
C 6.589638 7.371636 -9.164245
C 7.204919 6.886193 -7.846578
C 6.686993 7.559460 -6.574694
O 5.307263 7.241626 -6.270731
C 4.428635 8.150673 -6.778427
O 4.760778 9.097253 -7.493324
C 2.961340 7.954718 -6.400057
C 2.283672 6.852814 -5.906549
C 0.701730 6.647523 -5.939200
C 0.166883 5.389285 -5.615544
C -1.146172 5.000209 -5.924314
C -2.034959 5.947126 -6.410712
O -3.337528 5.624361 -6.599219
C -1.592538 7.229519 -6.618038
O -2.522892 8.126284 -7.089272
C -0.277951 7.590152 -6.359870
H 6.607957 2.702689 -13.605423
H 6.340427 4.111253 -14.651050
H 7.968846 3.734750 -14.071585
H 5.607043 4.497213 -12.287758
H 7.249518 4.153911 -11.745061
H 6.553459 6.396266 -13.715735
H 8.108471 6.145287 -12.919618
H 6.802432 7.987271 -11.884536
H 5.470390 6.895435 -11.576446
H 7.050617 5.509700 -10.101333
H 8.273065 6.755260 -10.359741
H 6.799198 8.439936 -9.299969
H 5.505021 7.252186 -9.147660
H 8.293387 7.048207 -7.909703
H 7.066959 5.804794 -7.750174
H 7.282745 7.185825 -5.736167
H 6.888245 8.644565 -6.628671
H 0.794167 4.598863 -5.182011
H -1.428486 3.968817 -5.795681
H -3.742467 6.490970 -6.839718
H -2.033823 8.939223 -7.308043
H -0.028048 8.624182 -6.502101
C 8.865562 0.145173 3.004683
C 8.055560 1.206152 2.290217
C 7.375411 2.144891 3.279798
C 6.738920 3.365703 2.623695
C 5.912537 3.026887 1.383377
C 5.136138 4.233352 0.859867
C 4.751316 4.112132 -0.601854
C 3.944689 2.876396 -1.018172
O 3.979302 2.744903 -2.458759
C 3.026290 3.367361 -3.211194
O 2.130033 4.042619 -2.785658
C 3.443910 3.279855 -4.667920
C 3.892759 2.046419 -5.079453
C 4.556800 1.905012 -6.426990
C 3.950535 1.047936 -7.372242
C 4.502283 0.910605 -8.646310
C 5.654813 1.617528 -8.974296
O 6.101019 1.652523 -10.259691
C 6.300094 2.402160 -8.010998
O 7.423037 3.106882 -8.354379
C 5.773900 2.542419 -6.748034
H 8.376296 -0.207649 3.919745
H 9.010035 -0.725308 2.355336
H 9.855929 0.530725 3.265996
H 8.714984 1.764185 1.616011
H 7.296530 0.714041 1.675959
H 8.085611 2.485816 4.042932
H 6.597546 1.581985 3.810752
H 7.525683 4.079419 2.340707
H 6.097910 3.868741 3.358246
H 6.572385 2.666087 0.588735
H 5.211702 2.218930 1.612468
H 4.253789 4.396979 1.482680
H 5.754912 5.129222 0.945939
H 4.144948 4.979816 -0.869519
H 5.649927 4.152145 -1.226274
H 2.909699 2.919452 -0.650669
H 4.422430 1.976015 -0.644602
H 3.030248 0.518701 -7.113697
H 3.980993 0.276276 -9.360346
H 5.359061 1.319242 -10.818025
H 7.498930 2.932165 -9.311019
H 6.263756 3.188116 -6.010976
C -4.955662 -4.309662 -10.862927
C -4.039170 -3.225763 -10.332059
C -4.218758 -3.010144 -8.840125
C -3.461479 -1.753274 -8.425147
C -3.078310 -1.747087 -6.951987
C -1.872266 -2.607368 -6.585787
C -0.539129 -2.258005 -7.273637
C -0.039841 -0.847436 -6.990232
O 0.748335 -0.809575 -5.789856
C 0.913146 0.478567 -5.381127
O 0.519391 1.454233 -6.003425
C 1.434763 0.507413 -3.977499
C 0.469118 0.701882 -3.015080
C -0.945756 0.947966 -3.487007
C -1.766113 -0.165589 -3.708793
C -3.083063 -0.004772 -4.077979
C -3.603289 1.280221 -4.213841
O -4.928266 1.389697 -4.501659
C -2.788183 2.390135 -4.031556
O -3.411810 3.601038 -4.137654
C -1.445506 2.249974 -3.699733
H -5.456951 -3.960036 -11.778025
H -5.732004 -4.593305 -10.136627
H -4.387665 -5.211375 -11.129452
H -4.236791 -2.298451 -10.868951
H -3.001329 -3.496873 -10.523396
H -3.863626 -3.895061 -8.288373
H -5.279252 -2.882283 -8.571942
H -4.110512 -0.890499 -8.614518
H -2.576670 -1.597548 -9.044172
H -2.891736 -0.712655 -6.659338
H -3.933610 -2.078236 -6.344771
H -1.734582 -2.578827 -5.498156
H -2.088332 -3.665881 -6.823918
H -0.685626 -2.361998 -8.359546
H 0.229940 -2.992760 -6.980405
H -0.885010 -0.124753 -6.952685
H 0.605704 -0.534696 -7.814800
H -1.353925 -1.187563 -3.623654
H -3.684529 -0.885297 -4.239647
H -5.057973 2.361886 -4.557308
H -2.778311 4.296319 -3.894961
H -0.793124 3.099903 -3.550632
C 8.795954 -4.585257 -3.382154
C 7.566942 -4.158143 -2.598809
C 7.950950 -3.429237 -1.315616
C 6.717849 -3.042019 -0.498272
C 7.108306 -2.278093 0.758491
C 5.962049 -2.052024 1.731145
C 4.825403 -1.166738 1.215736
C 3.964111 -0.700411 2.411545
O 2.685954 -0.085988 2.212823
C 2.229654 0.206765 0.978080
O 2.876658 0.141864 -0.057410
C 0.813303 0.764231 0.961621
C 0.057109 0.821370 2.110328
C -1.012832 1.899558 2.224141
C -2.364375 1.545949 2.238599
C -3.368170 2.502831 2.419971
C -3.018374 3.840846 2.580696
O -4.034933 4.755959 2.628156
C -1.684730 4.222979 2.589682
O -1.364475 5.569196 2.632435
C -0.662784 3.268313 2.422921
H 8.494318 -5.107213 -4.296624
H 9.423678 -5.258856 -2.789004
H 9.398188 -3.717705 -3.671171
H 6.974752 -5.046867 -2.356650
H 6.947893 -3.504388 -3.222931
H 8.593220 -4.074590 -0.702460
H 8.528803 -2.530819 -1.554007
H 6.052981 -2.424459 -1.110715
H 6.171561 -3.950220 -0.222370
H 7.864732 -2.855759 1.296045
H 7.561378 -1.318322 0.481567
H 6.367444 -1.601555 2.646314
H 5.517062 -3.020633 2.002838
H 4.213988 -1.741011 0.510672
H 5.206612 -0.296424 0.674962
H 4.554596 -0.000668 3.028760
H 3.784467 -1.581220 3.045619
H -2.643096 0.503670 2.096143
H -4.399636 2.194123 2.413665
H -3.614374 5.569124 2.968884
H -1.283534 5.828713 1.676534
H 0.391296 3.567974 2.431948
C -12.176534 -1.033048 6.771177
C -10.732309 -1.073770 7.211414
C -9.905810 -0.001207 6.512753
C -8.483360 0.057172 7.068773
C -7.666036 1.173729 6.419421
C -6.280667 1.275028 7.023765
C -5.338634 0.177570 6.524313
C -3.984481 0.355298 7.193191
O -2.943380 -0.563796 6.799513
C -2.425545 -0.453577 5.538949
O -3.006977 0.081095 4.617396
C -0.944842 -0.777714 5.488454
C -0.425142 -1.778409 6.291524
C 1.051909 -1.670585 6.685774
C 1.860691 -2.816506 6.786084
C 3.113018 -2.766485 7.379444
C 3.634516 -1.545803 7.815285
O 4.874392 -1.505198 8.344554
C 2.879081 -0.387309 7.669218
O 3.419141 0.841314 7.953779
C 1.589966 -0.466518 7.162091
H -12.272906 -1.299834 5.713376
H -12.602654 -0.033464 6.911775
H -12.770796 -1.734452 7.359506
H -10.681280 -0.920598 8.293176
H -10.302833 -2.057804 7.007605
H -9.861418 -0.199502 5.435782
H -10.375012 0.982108 6.635651
H -7.999366 -0.913209 6.902026
H -8.517478 0.219171 8.154307
H -8.182327 2.132044 6.562894
H -7.593051 1.005609 5.334245
H -5.845514 2.239927 6.749852
H -6.325421 1.258875 8.111337
H -5.268796 0.279596 5.436287
H -5.743167 -0.815199 6.733864
H -3.617923 1.385504 7.047026
H -4.124835 0.174881 8.269884
H 1.486824 -3.763726 6.403857
H 3.683457 -3.657571 7.508372
H 4.968816 -0.587364 8.670426
H 3.232021 1.364634 7.138812
H 0.951841 0.421991 7.191163
C 7.625289 -3.589245 6.747803
C 7.027357 -4.549724 5.732449
C 5.807965 -3.915590 5.085890
C 4.930836 -4.891076 4.312802
C 4.187836 -5.867884 5.246361
C 2.887903 -6.361151 4.611766
C 2.014550 -7.248149 5.500941
C 1.229840 -6.520777 6.601540
O 0.289021 -5.553155 6.086671
C -0.963995 -5.994733 5.742890
O -1.386131 -7.137679 5.844382
C -1.809788 -4.725560 5.445693
C -2.833102 -4.787344 4.479886
C -3.458795 -3.492565 4.071801
C -2.891981 -2.928036 2.921060
C -3.544493 -1.908803 2.225564
C -4.730064 -1.412174 2.733769
O -5.400910 -0.432499 2.045755
C -5.290342 -1.958839 3.889450
O -6.525352 -1.552163 4.314599
C -4.682286 -3.014174 4.563490
H 8.511142 -4.020654 7.221871
H 6.905372 -3.345820 7.536184
H 7.917943 -2.651471 6.253234
H 6.796922 -5.502021 6.225856
H 7.769141 -4.735586 4.950927
H 5.199146 -3.420200 5.840844
H 6.136141 -3.126272 4.404287
H 4.184886 -4.309533 3.755796
H 5.517266 -5.445555 3.577550
H 4.840567 -6.717510 5.478582
H 3.960246 -5.374784 6.201263
H 3.166179 -6.941929 3.732282
H 2.310651 -5.503431 4.268054
H 2.632149 -8.027725 5.973295
H 1.274921 -7.748193 4.851830
H 0.741905 -7.244621 7.287059
H 1.920703 -5.954352 7.236892
H -1.959292 -3.322513 2.518202
H -3.102979 -1.524616 1.322807
H -6.143738 -0.209725 2.636313
H -7.118101 -2.245017 3.939394
H -5.192271 -3.495066 5.390289
C -4.479636 -11.720054 8.344044
C -5.852574 -12.118147 8.842154
C -6.718367 -10.909832 9.199739
C -6.886165 -9.978761 7.994281
C -8.193353 -9.215681 8.048503
C -8.409066 -8.276232 6.879793
C -8.205088 -8.917633 5.510030
C -8.455367 -7.889610 4.397561
O -7.289663 -7.444868 3.627481
C -6.412634 -6.514864 4.104523
O -6.149731 -6.276265 5.282503
C -5.733342 -5.794877 2.916488
C -6.485542 -5.534600 1.778272
C -7.848737 -6.094393 1.472782
C -8.978179 -5.551973 2.120659
C -10.224454 -5.626898 1.501569
C -10.349427 -6.330594 0.312764
O -11.573420 -6.404970 -0.282008
C -9.256545 -6.984193 -0.243532
O -9.450226 -7.806090 -1.332708
C -7.994630 -6.879287 0.311298
H -3.963746 -11.108776 9.089913
H -3.873832 -12.601537 8.134227
H -4.545462 -11.141428 7.420472
H -6.361413 -12.709002 8.071179
H -5.760427 -12.771109 9.711190
H -7.697548 -11.270290 9.533207
H -6.276356 -10.360595 10.038383
H -6.858375 -10.596974 7.083879
H -6.033424 -9.290394 7.937430
H -9.008878 -9.946581 8.068015
H -8.255446 -8.647679 8.982077
H -7.774640 -7.390837 6.976281
H -9.449289 -7.907823 6.944046
H -8.951793 -9.724239 5.415475
H -7.215126 -9.362710 5.378419
H -9.036620 -7.031606 4.760621
H -9.089549 -8.403029 3.647556
H -8.834761 -4.958743 3.032073
H -11.056142 -5.109494 1.965229
H -11.387657 -6.893963 -1.114518
H -9.394977 -8.706976 -0.922154
H -7.124009 -7.285648 -0.206690
C 9.997854 8.845406 1.513330
C 8.571979 9.299060 1.750426
C 7.818107 9.594093 0.454287
C 7.599686 8.342949 -0.387419
C 6.706449 8.575599 -1.598678
C 7.275006 9.566626 -2.606017
C 6.407434 9.610404 -3.867004
C 5.217252 10.549986 -3.776326
O 4.293408 10.247964 -4.832829
C 3.050032 9.899880 -4.418831
O 2.726826 9.773241 -3.243007
C 2.042073 10.026023 -5.545633
C 2.215732 9.214829 -6.658678
C 1.633866 9.446474 -8.052244
C 1.236674 10.711113 -8.494469
C 0.530401 10.871213 -9.710682
C 0.286463 9.748747 -10.500460
O -0.459803 9.808030 -11.649576
C 0.785211 8.501055 -10.134393
O 0.538833 7.388924 -10.880181
C 1.474269 8.353656 -8.936003
H 10.035411 7.857900 1.046702
H 10.536808 9.543210 0.866850
H 10.530920 8.777205 2.464535
H 8.033675 8.532161 2.323827
H 8.579174 10.208057 2.362867
H 6.845118 10.042064 0.701100
H 8.361129 10.354194 -0.124365
H 8.561710 7.949606 -0.733054
H 7.126198 7.567138 0.227822
H 6.554525 7.608194 -2.100129
H 5.713758 8.909419 -1.268137
H 8.283817 9.258844 -2.894990
H 7.359742 10.572631 -2.185424
H 6.051907 8.604560 -4.106209
H 7.023224 9.919270 -4.720227
H 4.750323 10.507462 -2.781200
H 5.543775 11.590216 -3.905626
H 1.425178 11.607515 -7.883729
H 0.178649 11.869858 -9.976132
H -0.897366 10.675892 -11.665350
H -0.025494 7.728687 -11.597123
H 1.823225 7.358840 -8.700099
C -1.381020 10.803338 2.204844
C -0.257812 9.797847 2.000943
C 1.077606 10.353438 2.496277
C 2.257119 9.369615 2.547259
C 2.954964 9.061545 1.217728
C 2.194478 8.092701 0.335082
C 2.943399 7.782158 -0.970197
C 1.939129 7.104521 -1.903671
O 2.245411 6.966527 -3.294444
C 3.299152 6.218531 -3.707488
O 4.295204 5.918120 -3.086556
C 3.050480 5.806594 -5.154956
C 3.236473 4.505710 -5.577937
C 3.017314 4.356409 -7.091407
C 3.974115 4.854949 -7.999509
C 3.823607 4.704013 -9.397411
C 2.711709 4.057197 -9.900325
O 2.509266 4.002874 -11.254141
C 1.743795 3.595511 -9.022701
O 0.558005 3.103580 -9.500121
C 1.911772 3.700248 -7.634781
H -2.319198 10.416351 1.791326
H -1.154490 11.744463 1.694307
H -1.510772 11.037507 3.258383
H -0.211097 9.564020 0.932628
H -0.503270 8.871419 2.533021
H 1.361723 11.241842 1.919727
H 0.922032 10.689985 3.530283
H 3.027417 9.823673 3.195931
H 1.949738 8.429180 3.040635
H 3.943310 8.636841 1.431637
H 3.132557 10.000589 0.671232
H 1.245556 8.565992 0.056158
H 1.974503 7.159642 0.863366
H 3.827720 7.169534 -0.789316
H 3.334840 8.710554 -1.396392
H 1.641994 6.137842 -1.493843
H 1.040939 7.738853 -1.905562
H 4.877794 5.325673 -7.621876
H 4.558136 5.123077 -10.060190
H 1.652924 3.550435 -11.355572
H -0.120454 3.687689 -9.088311
H 1.157916 3.302738 -6.972546
C 10.375058 2.299884 -1.108357
C 11.480351 1.305722 -1.398738
C 11.105411 0.303528 -2.481172
C 11.045256 0.933180 -3.875897
C 10.694029 -0.083793 -4.952975
C 9.323399 -0.743687 -4.839529
C 8.128525 0.169650 -5.086960
C 7.629909 0.946457 -3.859090
O 6.273529 1.362187 -4.047220
C 5.386556 0.338011 -3.946142
O 5.726335 -0.805945 -3.667686
C 3.962723 0.823238 -4.201330
C 2.868620 0.081473 -3.795551
C 3.139599 -1.396980 -3.654759
C 3.444843 -2.143220 -4.816422
C 3.874017 -3.477380 -4.726465
C 3.953637 -4.073057 -3.465579
O 4.376026 -5.363848 -3.285196
C 3.635863 -3.340326 -2.326759
O 3.696673 -3.914562 -1.083808
C 3.253587 -2.013979 -2.409209
H 10.690360 2.986916 -0.312895
H 9.469250 1.792369 -0.771654
H 10.114309 2.907945 -1.981211
H 11.706163 0.755783 -0.482758
H 12.384185 1.842078 -1.690852
H 11.858126 -0.499305 -2.497624
H 10.148838 -0.169223 -2.223573
H 10.352544 1.767835 -3.906553
H 12.035066 1.352948 -4.115322
H 11.449081 -0.883395 -4.924118
H 10.790159 0.382272 -5.943639
H 9.280053 -1.521756 -5.620564
H 9.208934 -1.279165 -3.883299
H 8.320594 0.867084 -5.909851
H 7.314123 -0.471008 -5.450909
H 7.715919 0.379136 -2.922904
H 8.197538 1.871635 -3.732755
H 3.428179 -1.651863 -5.790993
H 4.141552 -3.994040 -5.634467
H 4.736278 -5.663924 -4.129202
H 4.068849 -4.795977 -1.255828
H 3.060406 -1.462683 -1.510567
C -0.909460 -10.117323 -5.823828
C -1.717595 -9.289694 -4.849178
C -1.433104 -7.793072 -4.975680
C 0.054272 -7.477845 -4.836230
C 0.328845 -5.992985 -4.716980
C -0.039785 -5.428945 -3.345651
C 0.150755 -3.923628 -3.365885
C -0.036848 -3.235118 -2.023374
O 0.445325 -1.902889 -2.157012
C 0.092951 -1.044252 -1.181556
O -0.670961 -1.316783 -0.263253
C 0.586585 0.379893 -1.530226
C 0.395785 1.233220 -0.452814
C -0.593316 2.349732 -0.661138
C -1.959931 1.990726 -0.765033
C -2.964716 2.964528 -0.847774
C -2.593032 4.310354 -0.793318
O -3.593546 5.249427 -0.629439
C -1.262268 4.676900 -0.698758
O -0.926719 6.000208 -0.516383
C -0.249166 3.716628 -0.628518
H -1.008635 -9.740392 -6.846937
H 0.158028 -10.112428 -5.569697
H -1.238886 -11.162253 -5.813189
H -1.500039 -9.621749 -3.825746
H -2.790035 -9.466515 -5.016863
H -1.783680 -7.444892 -5.955555
H -2.037529 -7.267396 -4.234301
H 0.552973 -7.834922 -5.751443
H 0.486147 -8.023782 -3.998054
H 1.395498 -5.825130 -4.894489
H -0.227237 -5.460570 -5.498857
H 0.578859 -5.899045 -2.568622
H -1.083326 -5.638585 -3.095649
H -0.579483 -3.501930 -4.057576
H 1.112946 -3.670296 -3.803505
H -1.107231 -3.280252 -1.758238
H 0.546719 -3.755561 -1.252820
H -2.262678 0.937839 -0.761978
H -3.997427 2.645788 -0.908856
H -4.211343 4.840095 0.022031
H -1.705885 6.468708 -0.873383
H 0.783543 4.008750 -0.483119
C 1.055668 -9.516196 -1.437883
C 1.180272 -9.881557 0.023699
C 2.403425 -9.292124 0.701370
C 2.600121 -7.795154 0.502581
C 1.492993 -6.974896 1.173576
C 1.805949 -5.499380 1.002797
C 0.855590 -4.495749 1.657071
C 1.541411 -3.131814 1.545312
O 0.764347 -1.938329 1.779445
C 0.317351 -1.692835 3.012944
O 0.214913 -2.575081 3.846898
C 0.137461 -0.176440 3.299497
C -0.211004 0.167139 4.601051
C 0.015452 1.614786 5.029973
C 1.310697 2.160398 4.950081
C 1.558425 3.464619 5.398099
C 0.518463 4.235564 5.915684
O 0.791161 5.525018 6.273994
C -0.766795 3.716747 5.987227
O -1.808076 4.496634 6.432292
C -1.023992 2.417289 5.573112
H 0.611388 -8.529659 -1.553030
H 0.402349 -10.216401 -1.953833
H 2.025620 -9.512599 -1.942612
H 0.279012 -9.562002 0.541595
H 1.226780 -10.962996 0.123513
H 3.304098 -9.799025 0.333314
H 2.363150 -9.501480 1.783208
H 3.568629 -7.503740 0.938754
H 2.669374 -7.543937 -0.558746
H 1.458635 -7.220428 2.239470
H 0.507120 -7.197433 0.745417
H 2.814711 -5.326955 1.389692
H 1.846982 -5.287109 -0.068970
H -0.126228 -4.499198 1.167961
H 0.695068 -4.753718 2.713679
H 1.870024 -3.015776 0.507756
H 2.444571 -3.117691 2.172147
H 2.120541 1.564453 4.533739
H 2.553185 3.868797 5.306321
H -0.091398 5.926273 6.421330
H -2.628140 4.039423 6.164762
H -2.034091 2.049988 5.595561
C -3.283845 -7.127101 15.382757
C -1.907189 -6.770791 14.867126
C -1.784544 -5.421682 14.145986
C -3.064898 -4.984120 13.434354
C -2.846116 -3.755246 12.559567
C -4.107581 -3.419691 11.772356
C -4.095434 -2.042509 11.118482
C -2.819866 -1.689139 10.357649
O -2.662783 -2.439356 9.137129
C -1.505201 -2.086850 8.512399
O -0.701058 -1.279880 8.991542
C -1.328266 -2.684307 7.106507
C -1.916230 -3.874183 6.716812
C -2.571067 -4.705515 7.798929
C -1.823908 -5.205794 8.869455
C -2.429556 -6.110807 9.753205
C -3.745067 -6.520355 9.519932
O -4.349644 -7.295852 10.469402
C -4.476338 -6.023986 8.451076
O -5.777073 -6.407616 8.261832
C -3.895400 -5.133031 7.601759
H -4.012873 -7.218463 14.575065
H -3.652715 -6.386868 16.098726
H -3.247725 -8.109471 15.870333
H -1.577993 -7.555663 14.179615
H -1.190794 -6.775011 15.699070
H -0.947049 -5.469247 13.422695
H -1.511683 -4.644366 14.874798
H -3.450253 -5.803092 12.824655
H -3.831734 -4.736714 14.175170
H -2.020954 -3.947699 11.869511
H -2.553698 -2.904732 13.188853
H -4.975114 -3.467267 12.437418
H -4.274939 -4.184945 11.012608
H -4.953598 -1.972935 10.434741
H -4.230470 -1.293297 11.912890
H -2.893227 -0.619714 10.056977
H -1.924314 -1.802833 11.010748
H -0.782705 -4.897500 9.018934
H -1.858450 -6.477936 10.606460
H -4.589345 -6.689385 11.192763
H -5.940456 -6.268806 7.320722
H -4.449160 -4.770488 6.735651
C -7.350057 -13.439684 0.479314
C -6.234041 -14.444827 0.701220
C -5.307200 -14.093922 1.868903
C -4.731060 -12.693212 1.758172
C -3.609409 -12.438877 2.758281
C -3.108486 -11.011253 2.558109
C -2.001661 -10.601611 3.516460
C -1.452404 -9.201446 3.235281
O -2.458238 -8.218229 3.457903
C -2.014598 -6.942753 3.306481
O -0.883869 -6.585824 3.005914
C -3.159998 -5.981882 3.559331
C -4.283064 -6.202148 2.729155
C -4.092122 -7.105387 1.531573
C -4.895025 -8.258492 1.418840
C -4.762209 -9.068464 0.311658
C -3.770296 -8.770537 -0.619993
O -3.681854 -9.531325 -1.760689
C -2.925308 -7.667637 -0.489373
O -1.969258 -7.458392 -1.437440
C -3.092524 -6.807162 0.576060
H -8.028540 -13.801261 -0.297967
H -7.922506 -13.287148 1.394982
H -6.959769 -12.469703 0.150757
H -6.668307 -15.441272 0.885598
H -5.635011 -14.523230 -0.213198
H -5.855315 -14.191633 2.810385
H -4.499025 -14.834459 1.914710
H -5.529754 -11.963980 1.928788
H -4.358545 -12.538809 0.738161
H -2.793363 -13.143008 2.594633
H -3.968559 -12.567752 3.785087
H -2.776600 -10.884468 1.520045
H -3.963057 -10.345435 2.715125
H -1.177266 -11.321509 3.454411
H -2.414567 -10.629983 4.533834
H -0.653097 -8.977451 3.953731
H -1.052150 -9.159398 2.201199
H -5.612045 -8.523343 2.188619
H -5.405150 -9.932494 0.205614
H -4.159423 -9.009452 -2.431252
H -1.253673 -6.922909 -1.027563
H -2.450365 -5.929234 0.718208
C -11.809988 3.030172 0.366810
C -10.659928 3.928345 -0.049375
C -9.432992 3.149681 -0.503049
C -8.775355 2.402083 0.655914
C -7.489827 1.682872 0.250956
C -7.674566 0.592860 -0.818343
C -8.737589 -0.460540 -0.493326
C -8.411875 -1.368169 0.699174
O -7.412124 -2.329093 0.355636
C -7.051698 -3.152685 1.373163
O -7.478958 -3.053687 2.522087
C -6.148684 -4.317673 0.950599
C -5.943237 -4.370714 -0.339052
C -6.017306 -3.852615 -1.676155
C -5.444078 -2.587507 -1.847711
C -5.844151 -1.796338 -2.911185
C -6.763832 -2.281822 -3.842226
O -7.117751 -1.512322 -4.918194
C -7.295495 -3.557764 -3.686329
O -8.183270 -4.028883 -4.619291
C -6.954252 -4.344278 -2.594044
H -12.025111 2.283841 -0.403679
H -11.595698 2.499257 1.296651
H -12.711768 3.627911 0.523259
H -10.987834 4.560183 -0.879459
H -10.387300 4.593455 0.774935
H -8.702320 3.844173 -0.938823
H -9.716617 2.453094 -1.302876
H -8.532207 3.108902 1.461236
H -9.472688 1.680747 1.094202
H -7.043016 1.242766 1.145958
H -6.762117 2.420245 -0.116038
H -7.945359 1.078988 -1.762239
H -6.704745 0.115932 -0.996768
H -8.903984 -1.080835 -1.392583
H -9.694761 0.044528 -0.277076
H -8.080492 -0.784124 1.564505
H -9.333504 -1.913616 0.973123
H -4.784579 -2.178620 -1.069943
H -5.462544 -0.788591 -2.982871
H -6.456768 -0.820424 -5.042078
H -8.080910 -4.998897 -4.676898
H -7.463544 -5.285312 -2.390214
