768
Molecule ID: homopoly_67921
C -7.326666 -10.163157 8.389153
C -8.647707 -10.311825 7.655718
N -8.651372 -9.554271 6.331904
C -9.840910 -8.538245 6.435707
C -9.668201 -7.230148 5.637349
O -8.624865 -6.426086 6.039773
C -8.652572 -5.241175 5.273534
O -9.594212 -4.973045 4.483652
C -7.461516 -4.489924 5.176784
C -6.499358 -3.683815 4.807959
S -8.816023 -10.523453 4.912019
O -8.790406 -9.609603 3.780305
O -10.045222 -11.306336 5.146513
C -7.392697 -11.708848 4.761439
F -6.830158 -11.963137 5.990469
F -7.873085 -12.943895 4.330411
C -6.337522 -11.257359 3.759504
F -5.461805 -12.293451 3.590525
F -6.949796 -11.121332 2.557145
C -5.515188 -10.004713 4.013797
F -6.290308 -8.929982 4.237968
F -4.867522 -9.737605 2.835237
C -4.438267 -10.131597 5.116587
F -5.096635 -10.159399 6.320028
F -3.781703 -11.277067 5.019668
C -3.477609 -8.946894 5.092701
F -4.125406 -7.786938 5.380506
F -2.994049 -8.777023 3.832665
C -2.249334 -9.090159 5.971860
F -1.440420 -8.011226 5.779533
F -1.524787 -10.152435 5.518378
C -2.436207 -9.263761 7.479215
F -3.203387 -10.369925 7.719733
F -1.217926 -9.531362 8.046954
C -3.031479 -8.030659 8.158971
F -2.286525 -6.916815 7.947420
F -3.139342 -8.193632 9.488022
F -4.290000 -7.760477 7.698071
H -6.815023 -9.226532 8.192638
H -6.656720 -10.979328 8.114988
H -7.495110 -10.255315 9.472316
H -8.909232 -11.345973 7.512909
H -9.405766 -9.919059 8.334868
H -10.016130 -8.235703 7.450574
H -10.765640 -9.031170 6.103512
H -10.639036 -6.678436 5.763346
H -9.550989 -7.497708 4.551983
H -6.349894 -3.671336 3.700288
C -11.436620 -4.767936 -0.839177
C -10.850149 -3.400579 -0.505771
N -11.217818 -2.959110 0.844345
C -10.204141 -3.003601 1.935662
C -9.043991 -1.991030 1.632579
O -8.038173 -1.855521 2.667372
C -6.991717 -1.093112 2.303786
O -6.862820 -0.661294 1.135616
C -6.068202 -0.723047 3.435635
C -5.048273 0.132350 3.237257
S -12.778595 -2.353081 1.139633
O -13.481003 -2.347786 -0.131595
O -13.294839 -3.120937 2.254286
C -12.450753 -0.644864 1.663503
F -11.631035 -0.004557 0.759833
F -11.719392 -0.654907 2.825459
C -13.760746 0.062435 1.834759
F -14.442863 0.154137 0.667922
F -14.574613 -0.587722 2.694927
C -13.485856 1.485205 2.364192
F -12.733663 2.140259 1.455778
F -12.744071 1.409634 3.495932
C -14.773779 2.225347 2.660364
F -15.456156 1.597138 3.651624
F -15.587555 2.249369 1.576994
C -14.432767 3.646626 3.104227
F -13.689086 4.247196 2.132920
F -13.656056 3.627149 4.204898
C -15.652362 4.534244 3.366905
F -15.180968 5.786888 3.649824
F -16.317121 4.681400 2.189033
C -16.640646 4.131684 4.424573
F -17.257901 2.969569 4.107385
F -17.652486 5.064750 4.460796
C -16.038173 4.067214 5.851802
F -15.370603 5.190535 6.166132
F -16.955620 3.820651 6.775014
F -15.112545 3.046358 5.916582
H -11.805237 -4.786873 -1.880897
H -12.265204 -5.053810 -0.191993
H -10.666554 -5.554126 -0.761420
H -9.761697 -3.467387 -0.639949
H -11.169981 -2.660073 -1.238900
H -10.632421 -2.724834 2.905684
H -9.788200 -4.027923 2.044105
H -8.502712 -2.310208 0.730590
H -9.475387 -1.005478 1.473837
H -4.362649 0.310422 4.084699
C -6.333470 -5.986912 1.182912
C -5.080458 -5.089761 1.025507
N -3.874649 -5.809100 1.582565
C -3.126255 -4.923905 2.596226
C -2.399071 -3.738827 1.898507
O -2.559394 -2.493602 2.622861
C -2.404371 -1.435065 1.806476
O -2.289627 -1.449000 0.576760
C -2.233192 -0.080731 2.607331
C -1.097746 0.105863 3.288264
S -2.830427 -6.584829 0.468954
O -2.283561 -5.568145 -0.395378
O -1.888742 -7.321240 1.340146
C -3.841027 -7.775006 -0.504127
F -4.395158 -8.741998 0.283322
F -4.913454 -7.114438 -1.076837
C -2.912800 -8.337443 -1.569246
F -2.258984 -7.380842 -2.283908
F -1.921326 -9.077916 -0.994259
C -3.697510 -9.223425 -2.533084
F -4.653025 -8.428209 -3.124048
F -4.406558 -10.161591 -1.873434
C -2.895146 -9.882919 -3.660885
F -3.807021 -10.441966 -4.536069
F -2.240804 -8.937746 -4.383564
C -1.923552 -10.960549 -3.216141
F -2.488627 -11.696238 -2.222965
F -0.824910 -10.405328 -2.628530
C -1.489916 -11.920542 -4.321907
F -0.673446 -12.878276 -3.780624
F -2.607847 -12.617533 -4.728721
C -0.827984 -11.366131 -5.589702
F -1.634766 -10.427607 -6.168537
F -0.735090 -12.378405 -6.516532
C 0.559169 -10.796462 -5.344197
F 1.132932 -10.372910 -6.497321
F 1.402807 -11.719397 -4.807997
F 0.523964 -9.748027 -4.495257
H -6.929991 -5.669399 2.069986
H -6.981796 -5.897568 0.284704
H -6.069919 -7.057369 1.284655
H -4.903349 -4.840889 -0.026978
H -5.243633 -4.126716 1.507666
H -2.365225 -5.532266 3.101976
H -3.823615 -4.532468 3.348345
H -1.300823 -3.888146 1.756944
H -2.892699 -3.672560 0.885191
H -0.511129 -0.738407 3.620334
C 7.477311 -0.415396 7.905427
C 6.883712 -0.363082 6.503537
N 7.217121 0.907421 5.788183
C 6.235461 1.365313 4.712680
C 4.963390 1.944373 5.307657
O 4.084278 2.355467 4.322670
C 2.770053 1.850245 4.458529
O 2.425680 1.044889 5.383339
C 1.760465 2.255982 3.415166
C 1.969272 3.034902 2.296538
S 8.890083 1.131439 5.488579
O 9.628300 0.008241 6.078096
O 9.184816 2.513370 6.067445
C 9.239243 1.251389 3.617399
F 8.883059 2.503657 3.175083
F 8.470974 0.407912 2.950686
C 10.740947 0.982989 3.524416
F 10.914186 -0.350370 3.836471
F 11.447895 1.653734 4.413050
C 11.316172 1.150394 2.121750
F 10.511174 0.550854 1.210078
F 12.485567 0.399831 2.124442
C 11.647599 2.573265 1.741225
F 10.532720 3.296876 1.551801
F 12.314979 3.157871 2.814187
C 12.616764 2.687842 0.553605
F 13.694002 1.886536 0.750154
F 13.133846 3.961255 0.522031
C 11.979047 2.417691 -0.811035
F 11.265793 1.262078 -0.782822
F 11.043295 3.396174 -1.054833
C 13.037866 2.387967 -1.891243
F 13.918139 1.356744 -1.645537
F 13.796383 3.513852 -1.879721
C 12.375441 2.171623 -3.272452
F 11.562032 3.209570 -3.585739
F 13.343318 2.131987 -4.233413
F 11.688554 1.061417 -3.329648
H 7.842323 -1.438867 8.120175
H 8.314895 0.284892 8.061230
H 6.708027 -0.175003 8.667404
H 7.197382 -1.216062 5.920988
H 5.830958 -0.470626 6.615829
H 5.999508 0.489835 4.123146
H 6.747031 2.058384 4.029042
H 5.272882 2.782283 5.965096
H 4.539456 1.218406 5.990120
H 3.010283 3.185813 1.900969
C 2.703313 -2.499632 5.338892
C 3.996925 -1.827514 4.919265
N 4.212793 -1.811785 3.439225
C 3.090248 -1.105013 2.694863
C 3.572339 -0.136974 1.622006
O 2.442606 0.408858 0.892818
C 2.818490 1.294123 -0.093983
O 3.970872 1.417605 -0.447196
C 1.636172 1.948177 -0.757991
C 1.607334 1.645373 -2.094617
S 4.673353 -3.289460 2.721293
O 4.805563 -2.996959 1.306523
O 3.687254 -4.259369 3.168706
C 6.375475 -3.665793 3.366486
F 7.256965 -2.679258 3.034021
F 6.352326 -3.715937 4.716879
C 6.810358 -5.041403 2.796924
F 5.769894 -5.883583 2.881093
F 7.750240 -5.554062 3.655637
C 7.356287 -5.068726 1.362886
F 7.180725 -6.351516 0.934513
F 6.609934 -4.325996 0.531776
C 8.831471 -4.688558 1.213254
F 9.585984 -5.440381 2.080448
F 9.045192 -3.396660 1.617074
C 9.314887 -4.905853 -0.221160
F 8.849379 -6.094499 -0.675245
F 8.729947 -3.968511 -1.050346
C 10.822373 -4.919745 -0.415212
F 11.319549 -5.895068 0.412262
F 11.091612 -5.349838 -1.667515
C 11.630883 -3.649278 -0.156006
F 12.966903 -3.981053 -0.128348
F 11.360117 -3.168660 1.083448
C 11.419015 -2.599013 -1.232009
F 10.120669 -2.152429 -1.242131
F 12.196377 -1.498879 -1.005397
F 11.680578 -3.039844 -2.469971
H 2.875932 -3.562709 5.549006
H 2.318032 -2.046625 6.261419
H 1.910092 -2.433924 4.578867
H 3.988656 -0.803068 5.276243
H 4.842218 -2.278024 5.436242
H 2.475995 -0.522843 3.385903
H 2.423608 -1.839797 2.272059
H 4.154412 0.686898 2.068715
H 4.199825 -0.645555 0.888804
H 2.425301 0.951081 -2.246922
C 1.452289 -0.622602 -9.891691
C 1.768236 0.570288 -10.766193
N 3.238750 0.859611 -10.693326
C 3.680250 2.183999 -10.081423
C 2.776909 2.797876 -9.009779
O 2.622421 1.844456 -7.936256
C 1.867837 2.164614 -6.863855
O 1.334102 3.264242 -6.710423
C 1.903026 1.053948 -5.856652
C 2.275381 -0.214383 -6.317866
S 4.106718 0.536035 -12.162992
O 5.484315 0.795740 -11.876430
O 3.433902 1.327806 -13.189336
C 3.878154 -1.286502 -12.489751
F 4.310236 -2.009765 -11.405309
F 2.546002 -1.580245 -12.594455
C 4.618488 -1.621058 -13.750097
F 5.942162 -1.364936 -13.667440
F 4.161740 -0.806595 -14.756987
C 4.392248 -3.059903 -14.207763
F 3.085348 -3.375200 -14.080612
F 4.663027 -3.115321 -15.566884
C 5.262765 -4.084880 -13.521427
F 6.568183 -3.868523 -13.824915
F 5.169769 -4.000765 -12.178516
C 4.842635 -5.498789 -13.975769
F 4.703687 -5.554226 -15.308156
F 3.615802 -5.755121 -13.440841
C 5.832199 -6.570739 -13.508705
F 7.022776 -6.368650 -14.139979
F 6.068568 -6.467090 -12.193578
C 5.279942 -7.958062 -13.857931
F 5.025277 -8.041346 -15.182677
F 4.096796 -8.145733 -13.216205
C 6.290275 -9.018854 -13.430832
F 7.482562 -8.882820 -14.069803
F 6.533947 -8.992101 -12.119918
F 5.829712 -10.247940 -13.735495
H 1.482549 -1.567186 -10.462985
H 0.438042 -0.573895 -9.454086
H 2.179033 -0.799404 -9.111283
H 1.414262 0.384630 -11.763808
H 1.190643 1.413635 -10.402305
H 4.649032 1.977973 -9.618696
H 3.836680 2.918783 -10.882437
H 3.243330 3.689896 -8.600645
H 1.813790 3.078303 -9.400283
H 2.376935 -0.365098 -7.367079
C 4.128571 6.066052 -4.962845
C 5.313669 6.149477 -5.936079
N 6.448934 5.185916 -5.638841
C 5.954599 3.833624 -5.193884
C 6.412009 2.630123 -6.059937
O 6.088591 1.446282 -5.268015
C 5.426899 0.454137 -5.806726
O 5.300929 0.256957 -7.032026
C 4.818291 -0.435261 -4.743529
C 4.960772 -0.152723 -3.442035
S 7.560329 5.779932 -4.472569
O 6.735342 6.146476 -3.336115
O 8.583102 4.777572 -4.375920
C 8.347287 7.340714 -5.138805
F 7.448931 8.382454 -5.152202
F 8.714685 7.194457 -6.443540
C 9.566845 7.701086 -4.297389
F 10.078953 8.890203 -4.755436
F 10.545190 6.791586 -4.505883
C 9.283277 7.841215 -2.794054
F 8.751301 6.711078 -2.317458
F 8.345820 8.819465 -2.583790
C 10.556788 8.112165 -2.016396
F 11.476856 7.165407 -2.353822
F 11.108370 9.308317 -2.386407
C 10.281327 8.062947 -0.515940
F 9.611391 6.939770 -0.178229
F 9.452836 9.102120 -0.159252
C 11.596582 8.120455 0.252811
F 12.281405 9.253534 -0.044241
F 12.390222 7.087606 -0.136604
C 11.317095 8.012844 1.737927
F 10.597412 6.891063 2.011068
F 10.573580 9.076550 2.154463
C 12.652267 7.950003 2.502507
F 13.418139 6.918097 2.106679
F 12.437947 7.835066 3.825923
F 13.392121 9.079738 2.298427
H 3.375655 5.344086 -5.322136
H 3.635552 7.033423 -4.855228
H 4.418944 5.738266 -3.958087
H 5.682619 7.181317 -5.955614
H 4.957522 5.945012 -6.950190
H 4.873069 3.761037 -5.171528
H 6.244663 3.649086 -4.160981
H 7.501828 2.661918 -6.200328
H 5.909528 2.658917 -7.024059
H 5.562151 0.744903 -3.197680
C 7.593323 -2.735937 -8.230751
C 8.515101 -3.642987 -7.414250
N 7.777268 -4.333756 -6.331170
C 7.195257 -3.571814 -5.200263
C 8.123632 -2.496493 -4.525610
O 7.461673 -2.017631 -3.341508
C 7.976888 -0.899837 -2.743886
O 9.015608 -0.380452 -3.170396
C 7.089148 -0.449907 -1.590988
C 7.162405 0.752596 -0.918402
S 7.490420 -5.994025 -6.402720
O 8.791263 -6.599822 -6.716323
O 6.834072 -6.366019 -5.179241
C 6.359772 -6.337566 -7.823438
F 6.900084 -5.911742 -9.002512
F 6.190936 -7.687872 -7.961638
C 4.996426 -5.679633 -7.604718
F 5.102768 -4.317316 -7.668089
F 4.497064 -5.944023 -6.392191
C 4.060998 -6.187413 -8.701409
F 3.895318 -7.531019 -8.545060
F 4.562505 -6.014874 -9.938178
C 2.691113 -5.496016 -8.612210
F 2.317890 -5.448050 -7.317763
F 2.821267 -4.195818 -9.004225
C 1.624108 -6.213790 -9.424731
F 1.541341 -7.521050 -9.069610
F 1.943093 -6.226514 -10.767955
C 0.271137 -5.546174 -9.185610
F 0.072277 -5.476579 -7.845934
F 0.312116 -4.252760 -9.625442
C -0.890782 -6.293990 -9.808305
F -0.852502 -7.611024 -9.490837
F -0.812670 -6.247918 -11.182499
C -2.173080 -5.642846 -9.289575
F -2.279149 -4.332598 -9.623584
F -2.294800 -5.741066 -7.944291
F -3.275730 -6.266632 -9.807606
H 8.171010 -1.990180 -8.787953
H 7.043926 -3.330596 -8.995251
H 6.852534 -2.201440 -7.641637
H 9.306256 -3.033687 -6.976204
H 9.002060 -4.347470 -8.091813
H 6.302789 -3.084151 -5.546573
H 6.892563 -4.229137 -4.399315
H 9.088407 -2.963773 -4.252987
H 8.283769 -1.679039 -5.215097
H 6.403040 0.928224 -0.124881
C -0.792810 -3.061007 6.562733
C -1.784767 -1.966382 6.948062
N -1.910063 -1.763224 8.418398
C -3.204874 -2.126751 9.067469
C -4.361368 -1.234861 8.512653
O -4.777417 -1.530227 7.150333
C -5.750673 -2.439263 6.947693
O -6.280902 -3.088208 7.836424
C -6.154828 -2.412436 5.500080
C -6.065601 -1.221978 4.842596
S -0.537393 -1.318222 9.304803
O 0.408024 -0.817894 8.316361
O -0.204780 -2.420927 10.158456
C -1.116118 0.100231 10.321841
F -1.958776 -0.276869 11.338814
F -1.863789 0.934854 9.517478
C 0.113153 0.802386 10.868619
F 0.676359 0.070788 11.858217
F 1.098961 0.887335 9.947914
C -0.239353 2.218965 11.381978
F -0.080647 2.280301 12.727755
F -1.550001 2.506550 11.167762
C 0.645034 3.243208 10.677361
F 0.586636 3.017289 9.327430
F 1.928959 3.057155 11.043990
C 0.197652 4.672487 10.898857
F 0.060818 4.949833 12.225417
F -1.044511 4.829274 10.346161
C 1.188489 5.602616 10.237216
F 1.502495 5.163662 8.975191
F 2.371827 5.562067 10.912664
C 0.693568 7.053524 10.191356
F 1.564040 7.875211 10.845415
F -0.491771 7.198116 10.811172
C 0.570724 7.495456 8.709098
F 0.216151 8.787107 8.575333
F -0.314007 6.743617 8.030190
F 1.771535 7.381306 8.079272
H -0.692569 -3.086461 5.464683
H 0.209051 -2.895194 6.979818
H -1.144527 -4.051226 6.908100
H -1.500978 -1.016335 6.513074
H -2.727701 -2.250569 6.489826
H -3.431419 -3.186586 8.897357
H -3.136497 -1.956245 10.142137
H -5.245739 -1.278149 9.152496
H -4.020402 -0.207565 8.525107
H -5.772894 -0.381327 5.483085
C -5.088467 5.650219 -3.244928
C -4.760178 6.331663 -1.936345
N -3.511082 5.862533 -1.277094
C -3.476187 4.467333 -0.747985
C -4.739144 3.844210 -0.170862
O -4.372811 2.577748 0.444203
C -5.184423 2.009184 1.377847
O -6.320058 2.401062 1.653719
C -4.488811 0.943366 2.130534
C -3.118324 0.958935 2.103979
S -2.007824 6.262547 -1.990106
O -0.978297 5.586437 -1.228639
O -2.127605 5.937277 -3.426576
C -1.672523 8.069716 -1.831020
F -2.678761 8.864352 -2.315322
F -1.550723 8.436405 -0.520989
C -0.389833 8.268900 -2.607913
F -0.634613 8.198925 -3.943726
F 0.547531 7.315071 -2.365127
C 0.352875 9.593096 -2.392766
F 1.268190 9.645946 -3.388376
F -0.467962 10.653804 -2.580110
C 1.027730 9.716528 -1.047061
F 0.210419 10.354200 -0.163997
F 1.257393 8.503958 -0.458232
C 2.408871 10.405995 -1.193823
F 3.281348 9.451049 -1.639247
F 2.425106 11.363681 -2.154442
C 2.846554 11.020637 0.111559
F 2.141100 12.159167 0.338744
F 2.491290 10.167230 1.118696
C 4.353430 11.296794 0.162225
F 4.691253 12.298604 -0.681476
F 5.020799 10.191538 -0.267418
C 4.764670 11.579739 1.607081
F 4.247087 10.695360 2.493136
F 6.103452 11.513544 1.748997
F 4.382439 12.817348 1.999649
H -4.423649 5.975032 -4.049109
H -6.109434 5.907854 -3.555635
H -5.045763 4.546052 -3.166889
H -4.722524 7.424240 -2.068143
H -5.581410 6.164994 -1.230050
H -2.719049 4.437514 0.045170
H -3.152756 3.790723 -1.528998
H -5.165549 4.515264 0.572835
H -5.479859 3.640795 -0.938129
H -2.579250 1.668573 1.507816
C -5.997817 2.580618 7.857913
C -4.936031 3.296355 8.699845
N -4.127669 4.185462 7.858062
C -3.386115 3.530495 6.757081
C -1.897433 3.336882 7.037401
O -1.225419 2.920132 5.833360
C -1.580194 1.755588 5.198532
O -2.542475 1.084850 5.598125
C -0.646658 1.383835 4.009132
C 0.458837 2.116909 3.983070
S -4.204286 5.861657 7.984710
O -3.025189 6.375439 7.276976
O -4.323895 6.171829 9.392270
C -5.710749 6.418969 7.074847
F -5.609456 7.698774 6.611132
F -5.865915 5.663397 5.929819
C -6.948496 6.325961 7.970346
F -7.077870 5.038215 8.458467
F -6.875400 7.085957 9.071356
C -8.248053 6.616522 7.182806
F -8.200810 6.050513 5.949498
F -9.293514 5.949120 7.768907
C -8.598412 8.120381 7.134339
F -9.496945 8.421474 8.101764
F -7.497119 8.831642 7.453543
C -9.071795 8.612881 5.753434
F -8.274386 8.090346 4.796030
F -8.886588 9.953979 5.652403
C -10.546953 8.316857 5.532701
F -11.318022 9.213756 6.206780
F -10.830790 7.106321 6.097475
C -10.972768 8.242795 4.071605
F -10.071298 7.517912 3.355056
F -12.142535 7.532018 3.986804
C -11.200615 9.612162 3.431095
F -12.264267 10.243708 3.998084
F -10.132643 10.422375 3.546717
F -11.490998 9.490661 2.121166
H -5.740894 1.501621 7.711144
H -6.988138 2.582298 8.346997
H -6.125219 3.011778 6.840825
H -4.289194 2.544580 9.172341
H -5.432336 3.841914 9.525919
H -3.525808 4.095373 5.850784
H -3.814286 2.569769 6.531562
H -1.458150 4.313289 7.336613
H -1.754250 2.720494 7.962719
H 0.520183 2.788832 4.960572
C -0.242604 9.548235 3.687219
C -0.873287 8.745489 2.543357
N -1.541067 7.493726 2.997343
C -0.703268 6.797654 4.080672
C -0.632203 5.290241 3.847935
O 0.132331 5.120333 2.624817
C -0.304044 4.032692 1.875773
O -1.390249 3.535816 2.043793
C 0.873186 3.358644 1.277671
C 0.823905 2.938326 -0.049334
S -3.196583 7.655136 3.475113
O -3.196350 8.615008 4.555404
O -3.663795 6.283878 3.745067
C -4.138838 8.322655 2.052621
F -3.571715 9.485615 1.597660
F -4.118283 7.496835 0.958359
C -5.579954 8.550776 2.529659
F -5.691850 8.552453 3.890144
F -6.398268 7.545190 2.117345
C -6.113163 9.915142 2.062931
F -7.236149 10.217767 2.776907
F -5.212962 10.863872 2.446958
C -6.380104 10.053710 0.556662
F -6.405710 11.388386 0.275138
F -5.348795 9.567568 -0.187998
C -7.688395 9.396943 0.140993
F -8.652906 9.642980 1.079224
F -7.562720 8.030696 0.117424
C -8.248225 9.914677 -1.201857
F -9.531419 9.466470 -1.281960
F -8.357496 11.279933 -1.181844
C -7.450438 9.470222 -2.403544
F -6.297997 10.190806 -2.477676
F -7.067521 8.161390 -2.292532
C -8.329445 9.645369 -3.656222
F -8.861085 10.882153 -3.760789
F -9.367826 8.772724 -3.661023
F -7.626230 9.400370 -4.776613
H -0.296285 10.624798 3.520505
H -0.667980 9.355756 4.668394
H 0.831817 9.302706 3.788154
H -0.094654 8.492899 1.824203
H -1.561618 9.415438 2.023973
H 0.315442 7.140160 4.001077
H -1.101997 7.003737 5.067455
H -0.011633 4.941372 4.673895
H -1.573857 4.763301 3.823492
H -0.142831 3.218882 -0.628991
C -5.991548 4.197425 -6.260845
C -4.802689 3.225179 -6.322143
N -3.573379 3.876648 -6.805814
C -2.425737 3.834076 -5.859366
C -1.705256 2.498770 -5.869737
O -0.497908 2.337866 -5.104362
C -0.269296 2.468363 -3.808630
O -1.121938 2.896340 -2.963707
C 1.075549 1.932288 -3.449044
C 1.908925 1.384113 -4.410617
S -3.331493 4.243730 -8.458368
O -2.006889 4.866272 -8.536474
O -4.499366 5.044668 -8.873702
C -3.237990 2.700589 -9.477880
F -2.501288 2.863050 -10.642938
F -2.552974 1.738445 -8.780831
C -4.637530 2.247430 -9.855804
F -5.561432 2.492846 -8.894311
F -5.072728 3.006136 -10.901505
C -4.734460 0.714912 -10.167298
F -5.592300 0.121642 -9.276576
F -3.534854 0.080187 -10.006538
C -5.218139 0.529698 -11.598283
F -6.459829 1.116801 -11.726554
F -4.379059 1.186157 -12.463650
C -5.423587 -0.928097 -12.045168
F -6.264624 -1.604637 -11.206581
F -6.088387 -0.841078 -13.238501
C -4.156603 -1.747578 -12.255500
F -3.153312 -0.991080 -12.792500
F -3.695321 -2.167633 -11.045269
C -4.479607 -2.892646 -13.202752
F -4.526229 -2.437216 -14.494610
F -5.739527 -3.394066 -12.970815
C -3.478572 -4.031288 -13.068195
F -2.194371 -3.635091 -13.218818
F -3.564111 -4.612136 -11.852150
F -3.720074 -5.009815 -13.961143
H -6.601427 3.995824 -5.387409
H -5.663444 5.242478 -6.212102
H -6.623834 4.097650 -7.134844
H -5.074611 2.315375 -6.854058
H -4.655564 2.883720 -5.297375
H -1.731346 4.694153 -6.072148
H -2.816299 4.067649 -4.887540
H -2.421823 1.700146 -5.640622
H -1.432582 2.330606 -6.949757
H 2.847681 0.992733 -4.122731
C 0.687171 -6.724286 -0.791605
C 1.947295 -5.983693 -1.192661
N 2.381021 -6.338996 -2.573488
C 2.923182 -5.225293 -3.373720
C 1.999136 -4.868443 -4.585327
O 2.658783 -3.740779 -5.271610
C 1.928773 -2.700602 -5.682325
O 0.747610 -2.770677 -6.085276
C 2.722189 -1.454365 -5.691242
C 3.983386 -1.546675 -5.111920
S 3.062030 -7.864538 -2.833428
O 2.118176 -8.871503 -2.352474
O 3.478688 -7.889552 -4.221051
C 4.529752 -7.934913 -1.709012
F 4.120352 -7.781208 -0.418139
F 5.353192 -6.852122 -1.918567
C 5.260196 -9.234038 -1.901810
F 6.289797 -9.018233 -2.769692
F 4.524743 -10.188606 -2.508329
C 5.826516 -9.771267 -0.579296
F 6.959752 -10.469284 -0.939028
F 6.306994 -8.789956 0.217893
C 4.976346 -10.774420 0.191252
F 5.872775 -11.665460 0.737609
F 4.228793 -11.552700 -0.644926
C 4.062648 -10.266638 1.335284
F 4.591386 -9.215410 2.001069
F 2.910122 -9.820201 0.793059
C 3.865719 -11.421389 2.325403
F 5.044295 -11.719738 2.940913
F 3.561429 -12.551261 1.610323
C 2.748808 -11.264743 3.350718
F 1.675571 -10.641794 2.833113
F 2.303349 -12.521783 3.673632
C 3.212247 -10.583425 4.658238
F 4.368759 -11.101123 5.146409
F 2.276999 -10.757611 5.616336
F 3.402823 -9.275568 4.489624
H 0.947206 -7.648437 -0.254485
H 0.099186 -6.102206 -0.103314
H 0.072823 -6.990914 -1.658553
H 1.715042 -4.918175 -1.116255
H 2.754141 -6.129028 -0.473446
H 3.956940 -5.418626 -3.680706
H 3.014992 -4.313764 -2.769256
H 1.010151 -4.562225 -4.241708
H 1.912981 -5.726629 -5.226829
H 4.369147 -2.509734 -4.678308
C -1.770694 -4.236667 -2.924227
C -1.945556 -2.840476 -2.327058
N -1.443496 -1.820482 -3.254788
C -0.135196 -1.185602 -3.029851
C 0.997847 -1.969031 -2.309907
O 2.342010 -1.368255 -2.641718
C 3.416051 -1.705777 -1.860715
O 3.243158 -2.484992 -0.919866
C 4.669938 -1.038540 -2.238264
C 5.820392 -1.173315 -1.380265
S -2.301195 -1.419220 -4.638543
O -2.896554 -2.661681 -5.210819
O -1.444901 -0.664579 -5.449552
C -3.687967 -0.279702 -4.216612
F -4.122777 0.241295 -5.441082
F -3.224761 0.818462 -3.547813
C -4.875881 -0.894098 -3.468107
F -4.597992 -0.994487 -2.133278
F -5.174629 -2.160433 -3.837285
C -6.051780 0.053403 -3.695560
F -5.729574 1.329823 -3.354545
F -6.349706 0.125824 -5.038140
C -7.359474 -0.362660 -3.002335
F -7.806756 -1.500424 -3.594756
F -7.107287 -0.722323 -1.716559
C -8.412887 0.739395 -3.114916
F -8.174804 1.581019 -4.173288
F -9.608790 0.159007 -3.391932
C -8.522555 1.571494 -1.828934
F -7.388071 2.272500 -1.628607
F -8.620742 0.718505 -0.757721
C -9.758406 2.452749 -1.835974
F -9.748793 3.296421 -2.913223
F -10.900490 1.702610 -2.004422
C -9.840440 3.228021 -0.517457
F -9.810828 2.423564 0.571086
F -8.803200 4.109066 -0.398304
F -10.977717 3.957446 -0.458836
H -0.964098 -4.787332 -2.440395
H -1.518277 -4.224215 -3.994283
H -2.697051 -4.809470 -2.834955
H -3.011648 -2.671036 -2.115553
H -1.442819 -2.811430 -1.371371
H 0.313802 -0.940593 -3.991505
H -0.283790 -0.191843 -2.509967
H 0.881456 -1.928217 -1.223901
H 1.023014 -2.959261 -2.647877
H 5.716271 -1.775559 -0.497319
C 4.922223 7.571659 1.672342
C 4.903703 6.782267 2.975005
N 6.118097 5.977511 3.219614
C 6.209958 4.624072 2.629846
C 6.987617 4.575765 1.318148
O 7.019190 3.252206 0.712170
C 7.794395 3.259619 -0.356177
O 8.411888 4.287874 -0.763367
C 7.929224 1.979101 -1.127224
C 8.615046 2.162796 -2.219186
S 7.514056 6.657450 3.879631
O 8.548195 5.656715 3.830647
O 7.708250 7.918788 3.145786
C 7.181476 7.088159 5.625074
F 6.084333 7.909529 5.735949
F 8.228195 7.845424 6.061285
C 6.924281 5.842449 6.511232
F 7.330430 4.676084 5.993965
F 5.580093 5.647176 6.637751
C 7.568835 6.094996 7.874590
F 7.587638 7.437396 8.154403
F 8.890932 5.752783 7.826523
C 6.906888 5.496367 9.101901
F 7.493375 6.079883 10.190116
F 5.604435 5.906533 9.166091
C 6.958903 3.979626 9.203012
F 5.960797 3.439559 8.487445
F 8.104240 3.496867 8.663636
C 6.909036 3.587311 10.691743
F 5.831507 4.149345 11.312049
F 7.997083 4.082158 11.345373
C 6.886405 2.078244 10.832260
F 5.830231 1.552798 10.151061
F 8.007003 1.549739 10.250932
C 6.822376 1.672274 12.297875
F 5.623425 1.995440 12.849768
F 6.981512 0.341854 12.425012
F 7.766847 2.269892 13.065070
H 4.022202 8.197917 1.610345
H 5.772768 8.245549 1.601240
H 4.923527 6.926801 0.794234
H 4.029695 6.110536 2.946736
H 4.718880 7.457361 3.821861
H 6.678416 3.957725 3.348177
H 5.200098 4.211200 2.468764
H 8.016289 4.889765 1.505840
H 6.535154 5.263440 0.597612
H 9.164728 2.400817 -3.123052
