272
Molecule ID: homopoly_18392
C 8.117757 3.548703 1.427319
O 7.607166 4.350797 0.367942
C 8.096553 3.898568 -0.900751
C 7.474694 4.751801 -2.009761
O 6.038126 4.648626 -2.009660
C 5.538621 3.489404 -2.498231
O 6.179810 2.575432 -2.995316
C 4.118529 3.384878 -2.298664
C 2.853974 3.222364 -2.045067
H 7.740033 3.947162 2.372599
H 9.211543 3.582535 1.445488
H 7.772095 2.514769 1.325321
H 7.833444 2.844530 -1.028352
H 9.188633 4.004322 -0.926136
H 7.707963 5.806572 -1.840240
H 7.873254 4.480207 -2.994524
H 2.566808 2.697285 -1.141424
C -1.932592 4.979608 -11.243544
O -0.746677 4.878890 -10.462617
C -1.021793 4.953712 -9.067952
C 0.254930 4.738316 -8.265471
O -0.013263 4.991421 -6.878185
C 1.069463 4.793567 -6.081922
O 2.162521 4.404389 -6.467329
C 0.797997 5.138023 -4.645979
C -0.247154 5.920257 -4.306519
H -1.646245 5.070418 -12.296410
H -2.535282 4.076552 -11.124023
H -2.513936 5.860863 -10.960853
H -1.442707 5.939807 -8.832622
H -1.763956 4.194036 -8.791611
H 0.609086 3.708725 -8.401485
H 1.033367 5.424224 -8.623432
H -0.936363 6.296983 -5.063191
C 4.217128 5.502324 0.848957
O 2.807401 5.627923 1.025149
C 2.400200 6.994188 0.866659
C 0.914461 7.140121 1.184756
O 0.117929 6.549709 0.142190
C -1.181993 6.957972 0.140559
O -1.664993 7.772159 0.910490
C -1.955607 6.182406 -0.875797
C -3.129945 5.748139 -0.370222
H 4.750500 6.028645 1.646896
H 4.479759 4.443331 0.892246
H 4.518242 5.900364 -0.124273
H 2.975017 7.619183 1.560018
H 2.602435 7.309431 -0.166292
H 0.681439 8.205240 1.284371
H 0.682943 6.620349 2.124607
H -3.424807 6.065535 0.633486
C -8.389400 -0.305412 -4.561024
O -8.283635 -0.097457 -3.159877
C -8.653042 1.235735 -2.801105
C -8.502722 1.394001 -1.292503
O -7.116102 1.370451 -0.903230
C -6.476603 2.568916 -0.911230
O -6.981504 3.610804 -1.297911
C -5.089584 2.473125 -0.318209
C -4.735227 1.311208 0.285456
H -7.718149 0.366295 -5.095158
H -8.101645 -1.338368 -4.778281
H -9.415928 -0.155179 -4.902501
H -9.699348 1.405000 -3.084278
H -8.009010 1.945474 -3.334061
H -8.985520 2.315630 -0.940489
H -8.986505 0.559214 -0.772143
H -5.404930 0.451431 0.278222
C -4.621970 0.141768 -5.964459
O -5.173119 -0.451251 -4.796321
C -4.354992 -0.220532 -3.649303
C -4.738509 -1.183668 -2.522568
O -4.050769 -0.893524 -1.288199
C -2.716825 -1.093375 -1.278580
O -2.061931 -1.503816 -2.228759
C -2.113438 -0.788232 0.048352
C -1.056022 -1.532137 0.451626
H -5.371295 0.094765 -6.759521
H -4.362162 1.188644 -5.786579
H -3.736834 -0.416181 -6.283314
H -4.473243 0.818695 -3.319260
H -3.304120 -0.364027 -3.923784
H -5.813874 -1.096780 -2.319251
H -4.568414 -2.228160 -2.812092
H -0.566852 -1.215450 1.377558
C 4.075597 -4.526376 -5.738595
O 4.124170 -5.103605 -4.440867
C 3.209577 -4.473880 -3.545354
C 3.359468 -5.086370 -2.156335
O 2.415005 -4.471736 -1.269808
C 2.460125 -4.946457 0.002846
O 3.287462 -5.730171 0.437795
C 1.337010 -4.365805 0.794836
C 0.896921 -4.814107 1.994459
H 3.065641 -4.601823 -6.159183
H 4.766874 -5.075116 -6.383227
H 4.390371 -3.477942 -5.703479
H 2.180607 -4.605343 -3.904869
H 3.408137 -3.396672 -3.494629
H 3.177087 -6.167172 -2.207065
H 4.381035 -4.926213 -1.791684
H 0.108913 -4.202711 2.447405
C -1.809042 -10.563602 1.108135
O -1.099009 -10.353195 2.319340
C -1.872993 -9.594393 3.255381
C -1.067828 -9.383504 4.534194
O -0.227588 -8.226706 4.377130
C 0.534651 -7.965222 5.469711
O 0.575924 -8.656691 6.480280
C 1.222020 -6.637163 5.331618
C 2.022035 -6.291705 6.365479
H -2.816295 -10.949302 1.300126
H -1.861521 -9.626864 0.547740
H -1.268080 -11.298549 0.512859
H -2.150563 -8.631103 2.804206
H -2.781692 -10.160701 3.491537
H -1.756964 -9.192541 5.363651
H -0.449891 -10.263663 4.746221
H 2.214039 -7.021715 7.154334
C 5.275163 0.948901 8.985798
O 5.190244 0.792446 10.395488
C 3.921289 0.305955 10.845779
C 3.677389 -1.166781 10.508158
O 3.235106 -1.279128 9.144154
C 2.841739 -2.523992 8.778254
O 2.763921 -3.487483 9.532706
C 2.493784 -2.609532 7.315138
C 2.667788 -1.531565 6.521563
H 5.383174 -0.022578 8.498856
H 6.169108 1.536920 8.764373
H 4.404719 1.482110 8.594005
H 3.123866 0.949682 10.456037
H 3.933330 0.414248 11.937334
H 4.598794 -1.744856 10.630586
H 2.894385 -1.554843 11.168810
H 3.033235 -0.609442 6.973437
C 0.873926 -0.270693 -7.071015
O 0.190265 0.763677 -6.370873
C -0.285753 0.321039 -5.095420
C -0.986629 1.490279 -4.403533
O -0.076305 2.571272 -4.155409
C 0.716302 2.437100 -3.067729
O 0.649833 1.518193 -2.260184
C 1.778721 3.498327 -2.989920
C 1.767992 4.664989 -3.672869
H 1.681680 -0.692091 -6.461749
H 1.307680 0.160189 -7.976993
H 0.163842 -1.055201 -7.349590
H 0.560572 -0.034653 -4.496129
H -0.993932 -0.501999 -5.241220
H -1.761050 1.897468 -5.064743
H -1.471679 1.170458 -3.477090
H 2.595052 5.365954 -3.541157
C -3.057606 11.188548 -0.185479
O -2.176760 10.911979 -1.265848
C -0.857528 10.633642 -0.799741
C -0.064660 9.930008 -1.896349
O -0.652132 8.644236 -2.165845
C 0.210155 7.695815 -2.603089
O 1.417083 7.827992 -2.742678
C -0.527945 6.447883 -2.971246
C -1.447923 5.830653 -2.196764
H -4.040407 11.440825 -0.597961
H -3.167972 10.305906 0.452144
H -2.691441 12.035158 0.402303
H -0.371450 11.582887 -0.543397
H -0.892305 10.005150 0.092625
H -0.099700 10.508814 -2.823069
H 0.974498 9.828579 -1.562633
H -1.930763 4.959581 -2.640801
C -3.600421 6.049174 -6.672405
O -4.003465 5.613683 -5.384848
C -4.745810 4.396131 -5.452296
C -5.606479 4.227579 -4.205569
O -4.789893 4.055317 -3.032827
C -4.770486 5.128095 -2.200726
O -5.196995 6.251620 -2.433216
C -4.067859 4.781696 -0.936048
C -4.239799 3.658870 -0.209309
H -4.463228 6.426157 -7.228561
H -3.136189 5.229980 -7.219770
H -2.875444 6.860286 -6.557935
H -4.027808 3.571114 -5.537022
H -5.396961 4.393868 -6.335401
H -6.305523 5.067904 -4.106089
H -6.204628 3.317297 -4.306387
H -3.608793 3.624077 0.678466
C -3.973936 6.374815 3.513234
O -3.687639 4.999614 3.276316
C -2.371096 4.656837 3.710391
C -2.283631 3.144870 3.919940
O -2.423845 2.457347 2.665081
C -3.599702 1.797354 2.473484
O -4.539726 1.721873 3.244263
C -3.574240 1.102794 1.132482
C -2.544789 0.245732 1.002428
H -3.210185 7.012994 3.064401
H -4.035382 6.561569 4.589299
H -4.945454 6.604407 3.064870
H -1.662956 4.977992 2.937179
H -2.130075 5.163996 4.651083
H -1.293942 2.888372 4.308614
H -3.027637 2.815671 4.657623
H -1.858052 0.273395 1.854362
C -4.596098 -8.192411 0.185929
O -4.651757 -6.846381 -0.264019
C -3.465028 -6.119111 0.059973
C -3.559089 -4.731552 -0.571166
O -2.605700 -3.807288 -0.023808
C -1.335343 -3.940814 -0.481204
O -0.920840 -4.868101 -1.162239
C -0.488082 -2.811477 0.011955
C 0.780463 -3.067179 0.404496
H -3.848130 -8.745461 -0.389643
H -5.571628 -8.652398 0.021708
H -4.360713 -8.238831 1.253253
H -2.583068 -6.654688 -0.314657
H -3.373970 -6.034097 1.148564
H -4.552510 -4.304580 -0.385266
H -3.457499 -4.789073 -1.661953
H 1.415388 -2.246236 0.738384
C 1.984433 -11.645768 -0.220195
O 2.256442 -10.417428 -0.879634
C 1.574950 -9.300282 -0.313733
C 2.158441 -8.852616 1.023034
O 1.461649 -7.688063 1.478685
C 2.072862 -7.077257 2.522661
O 3.076256 -7.457605 3.104668
C 1.290138 -5.875628 2.919373
C 0.931911 -5.749047 4.218683
H 2.498960 -12.445855 -0.762001
H 2.358309 -11.630473 0.808074
H 0.912306 -11.860796 -0.232747
H 1.662336 -8.473229 -1.028539
H 0.501579 -9.506705 -0.232926
H 3.227394 -8.639250 0.891666
H 2.057340 -9.640464 1.774288
H 0.352435 -4.882484 4.530158
C 5.502874 -8.581093 5.204146
O 6.677111 -8.482031 6.002638
C 6.466597 -7.818908 7.255556
C 6.089968 -6.343248 7.111888
O 4.666631 -6.251001 6.933381
C 4.206243 -4.991169 6.719266
O 4.898721 -3.985454 6.659291
C 2.707023 -5.017860 6.600685
C 1.989566 -3.900697 6.853511
H 4.654886 -8.958836 5.784496
H 5.704941 -9.281952 4.389879
H 5.265910 -7.610062 4.761910
H 7.418522 -7.888821 7.795179
H 5.712131 -8.370044 7.829188
H 6.348715 -5.812754 8.035483
H 6.604032 -5.895644 6.253754
H 0.901519 -3.957057 6.859522
C 5.434260 0.454346 0.345558
O 4.699271 0.657150 1.547870
C 3.380645 1.148447 1.283801
C 2.628548 1.320764 2.600192
O 2.424866 0.021219 3.181434
C 2.350574 0.016104 4.536882
O 2.219707 1.007176 5.246351
C 2.467980 -1.373365 5.086662
C 2.613736 -2.379633 4.264094
H 5.532518 1.392640 -0.205182
H 4.943697 -0.297454 -0.279596
H 6.431713 0.099004 0.608954
H 2.855914 0.439098 0.632966
H 3.462237 2.121547 0.791859
H 3.216954 1.964031 3.263855
H 1.648608 1.775310 2.416347
H 2.812539 -3.175914 3.580882
