112
Molecule ID: homopoly_4068533
O 8.951783 3.098761 4.355375
C 8.460410 2.311742 3.384278
O 7.799307 1.215582 3.583688
C 8.957600 2.689717 1.868640
C 9.777373 3.159705 0.944749
Na -4.990559 0.713629 -2.431906
H 10.698977 3.538051 1.399937
O 9.601124 0.120391 -2.365864
C 8.920321 0.643099 -1.438594
O 8.775827 0.149165 -0.314286
C 8.109728 1.906339 -1.851255
C 7.105521 1.642792 -2.716848
Na -4.990559 0.713629 -2.431906
H 6.839554 0.603437 -2.801740
O 5.533902 1.288149 -7.257419
C 4.382961 1.342337 -6.753981
O 3.333184 0.768800 -7.193468
C 4.118401 2.172792 -5.385708
C 3.466572 3.326197 -5.605676
Na -4.990559 0.713629 -2.431906
H 3.360476 3.599701 -6.682297
O 1.467329 0.895487 -4.132312
C 1.467753 1.749923 -3.210586
O 1.742048 1.625172 -1.966859
C 0.604405 3.020442 -3.653433
C -0.712034 2.673168 -3.294284
Na -4.990559 0.713629 -2.431906
H -0.847471 1.635706 -2.973104
O -4.914118 -0.425750 -1.401188
C -4.203377 0.456083 -2.078452
O -3.807955 0.171285 -3.282370
C -3.721517 1.830432 -1.500461
C -3.622413 2.082482 -0.158225
Na -4.990559 0.713629 -2.431906
H -3.194714 3.114190 0.024323
O -4.151701 2.445772 4.256172
C -4.929048 1.462070 4.498845
O -5.475166 1.153972 5.680622
C -5.376627 0.561586 3.253457
C -6.205044 -0.531953 3.305004
Na -4.990559 0.713629 -2.431906
H -6.299661 -0.923522 2.286410
O -8.173928 -3.370928 6.860609
C -7.896845 -4.384896 6.143672
O -8.347659 -5.608883 6.377627
C -6.794725 -4.218984 5.010957
C -6.060751 -5.319487 4.817142
Na -4.990559 0.713629 -2.431906
H -6.447344 -6.315894 5.130466
O -6.442254 -6.779373 2.045492
C -5.345387 -7.251698 1.563605
O -5.208818 -7.887658 0.413139
C -4.079000 -7.246209 2.487675
C -2.972189 -8.068113 2.438951
Na -4.990559 0.713629 -2.431906
H -2.188262 -7.954397 3.174793
O 10.207696 5.934193 0.172658
C 10.396002 4.988724 -0.655075
O 11.423093 4.920126 -1.504757
C 9.560006 3.655494 -0.454226
C 8.856435 3.137043 -1.524699
Na -4.990559 0.713629 -2.431906
H 8.999378 3.803984 -2.375999
O 6.679228 4.040022 -5.608500
C 6.794607 3.811865 -4.295428
O 7.277073 4.655670 -3.472476
C 6.167435 2.485872 -3.671861
C 5.001066 1.843938 -4.187351
Na -4.990559 0.713629 -2.431906
H 4.723749 0.869562 -3.705306
O 1.290856 5.306268 -6.895209
C 2.206419 5.530653 -6.007308
O 2.943438 6.606311 -5.921754
C 2.456736 4.293936 -4.904799
C 1.316594 4.137478 -4.193153
Na -4.990559 0.713629 -2.431906
H 0.650891 5.025195 -4.218389
O -1.886777 5.568931 -4.021624
C -2.535717 4.475875 -4.155895
O -3.664563 4.399601 -4.737970
C -2.137829 3.310617 -3.221139
C -3.313588 2.894310 -2.495412
Na -4.990559 0.713629 -2.431906
H -4.216094 3.485071 -2.721933
O -2.390035 -0.000739 2.676284
C -2.483051 1.064126 1.981116
O -1.601543 1.972642 1.780947
C -3.846901 1.340025 1.194548
C -5.064366 1.039155 1.844443
Na -4.990559 0.713629 -2.431906
H -5.924171 1.353024 1.359749
O -8.611120 0.322300 4.353412
C -8.400238 -0.940193 4.522846
O -9.359289 -1.724182 4.771551
C -6.963239 -1.591096 4.263339
C -6.411155 -2.813131 4.450336
Na -4.990559 0.713629 -2.431906
H -5.319575 -2.769205 4.200013
O -3.029276 -6.277482 6.138880
C -3.785469 -5.273060 5.886680
O -4.047860 -4.314757 6.672859
C -4.648673 -5.463415 4.500857
C -3.881838 -6.256106 3.618004
Na -4.990559 0.713629 -2.431906
H -2.803033 -6.101536 3.821710
O -1.024982 -11.075383 1.100713
C -1.451521 -10.279092 2.052747
O -1.133717 -10.408736 3.264970
C -2.524306 -9.182894 1.553436
C -2.729693 -9.087692 0.234821
Na -4.990559 0.713629 -2.431906
H -2.722944 -9.258959 -0.831208
