672
Molecule ID: homopoly_5315874
C 10.132350 -8.071189 -10.008626
O 9.417262 -7.005552 -10.621942
C 8.250527 -6.775963 -9.942975
C 8.258543 -5.897639 -8.855700
C 7.061804 -5.534108 -8.242730
C 5.853750 -6.091038 -8.689645
C 4.582701 -5.749718 -8.113491
C 3.301237 -5.600721 -7.913002
C 2.472342 -5.918739 -9.154522
O 1.843325 -4.968718 -9.649345
O 2.167286 -7.249112 -9.215499
C 0.758011 -7.495525 -9.287877
C 0.438661 -8.930860 -9.737946
O 1.319148 -9.682784 -10.167797
C -1.012765 -9.412955 -9.548932
C -1.215613 -10.308511 -8.337021
C -0.329745 -11.376999 -8.100733
C -0.466432 -12.194740 -6.981770
C -1.518082 -11.976378 -6.109998
O -1.629335 -12.772102 -5.004326
C -2.448159 -10.955957 -6.347779
O -3.465626 -10.785990 -5.450508
C -2.301253 -10.114633 -7.458459
C 5.853485 -6.988107 -9.780702
C 7.044486 -7.300006 -10.407938
O 7.048481 -8.080363 -11.538774
H 9.492437 -8.933427 -9.777058
H 10.891575 -8.400027 -10.725703
H 10.653254 -7.716053 -9.104011
H 9.197400 -5.457086 -8.521766
H 7.067167 -4.788789 -7.445417
H 0.210126 -6.773008 -9.919661
H 0.363500 -7.411443 -8.270111
H -1.674183 -8.534860 -9.508898
H -1.320032 -9.952839 -10.453166
H 0.490881 -11.582784 -8.783024
H 0.235550 -13.006835 -6.807506
H -2.437046 -12.445583 -4.564032
H -4.271946 -10.667073 -5.988666
H -2.996025 -9.305102 -7.621995
H 4.902354 -7.390555 -10.143346
H 6.144485 -8.389911 -11.704474
C 6.739468 -9.953097 -3.987605
O 7.386270 -8.718289 -4.291836
C 6.600643 -7.638118 -4.554251
C 7.319094 -6.437520 -4.741938
C 6.635765 -5.222527 -4.959910
C 5.245410 -5.141085 -4.936423
C 4.462821 -3.869246 -5.195454
C 4.939214 -2.635125 -4.784957
C 4.245147 -1.449854 -5.436627
O 3.749512 -0.512463 -4.838367
O 4.375863 -1.538211 -6.778588
C 3.847293 -0.411799 -7.484272
C 4.695508 -0.220726 -8.732654
O 5.867743 -0.613542 -8.816516
C 4.016570 0.457680 -9.903484
C 3.992308 1.964424 -9.812413
C 2.886762 2.631234 -9.248025
C 2.835161 4.032349 -9.226406
C 3.889072 4.766151 -9.766836
O 3.882311 6.133924 -9.787864
C 4.998870 4.106394 -10.296986
O 6.036757 4.812770 -10.835551
C 5.064186 2.720072 -10.313436
C 4.549802 -6.362633 -4.741739
C 5.212886 -7.588987 -4.593129
O 4.425240 -8.707422 -4.465459
H 6.097703 -9.837838 -3.093517
H 6.157291 -10.314338 -4.866401
H 7.514005 -10.710835 -3.738197
H 8.406457 -6.409535 -4.732887
H 7.257174 -4.339960 -5.177207
H 2.824293 -0.661604 -7.791717
H 3.844857 0.516608 -6.898146
H 4.521940 0.133019 -10.831058
H 2.991839 0.063531 -9.993442
H 2.044090 2.053453 -8.860175
H 1.942873 4.509644 -8.824290
H 3.486826 6.409350 -8.937788
H 5.753909 5.744163 -10.762460
H 5.937141 2.240328 -10.748895
H 3.472787 -6.353679 -4.688507
H 3.651894 -8.567620 -5.044188
C 7.721803 -9.351709 -0.431640
O 6.504327 -8.742994 -0.842147
C 6.573945 -7.393183 -1.085309
C 7.741143 -6.634852 -1.153483
C 7.650341 -5.250448 -1.363912
C 6.392592 -4.627065 -1.515985
C 6.317598 -3.149591 -1.690169
C 6.096677 -2.385548 -0.561679
C 6.644727 -0.921290 -0.560264
O 7.420810 -0.423044 -1.357020
O 6.245890 -0.203626 0.515761
C 6.630669 1.166783 0.468130
C 8.042555 1.599961 0.884691
O 8.465928 2.736644 0.630467
C 8.855929 0.678542 1.756180
C 8.651962 0.907427 3.242872
C 7.370204 1.020252 3.824806
C 7.219257 1.197346 5.208692
C 8.351850 1.242321 6.018036
O 8.258067 1.402602 7.377614
C 9.624172 1.107174 5.456030
O 10.733608 1.127912 6.245595
C 9.777549 0.944424 4.083305
C 5.242352 -5.403686 -1.521180
C 5.341331 -6.778205 -1.335055
O 4.212787 -7.523045 -1.520250
H 8.101898 -8.875777 0.476296
H 8.473727 -9.358753 -1.227817
H 7.501546 -10.393430 -0.191188
H 8.737144 -7.064191 -1.068821
H 8.580062 -4.676949 -1.397030
H 6.408714 1.586933 -0.517953
H 5.972250 1.683992 1.168446
H 9.906583 0.848966 1.485817
H 8.686859 -0.363981 1.471096
H 6.476549 0.949045 3.210470
H 6.208886 1.283794 5.604945
H 7.311243 1.419250 7.588498
H 10.381530 1.248299 7.149767
H 10.781050 0.843965 3.690832
H 4.297356 -4.961602 -1.775960
H 4.523731 -8.441438 -1.446760
C 0.319042 -8.097738 -2.539165
O 0.869325 -7.971411 -1.244205
C 1.326947 -6.739927 -0.869862
C 1.217569 -5.547965 -1.586732
C 1.751886 -4.336227 -1.047030
C 2.433846 -4.269250 0.168154
C 3.159335 -2.979388 0.650112
C 2.580022 -1.735169 0.740626
C 3.366023 -0.502500 1.210336
O 4.182550 -0.477878 2.111730
O 2.875143 0.602731 0.595710
C 3.049540 1.871176 1.245782
C 3.720054 2.952438 0.412626
O 4.099246 2.732874 -0.733178
C 3.801067 4.319534 1.090440
C 4.778610 5.305910 0.498026
C 6.156345 5.141772 0.769972
C 7.093474 6.030826 0.255554
C 6.666966 7.086859 -0.524565
O 7.611165 7.895994 -1.081812
C 5.298730 7.280753 -0.778312
O 4.867529 8.368517 -1.472790
C 4.358456 6.389330 -0.281263
C 2.529580 -5.513977 0.847750
C 1.951822 -6.692632 0.359285
O 2.034094 -7.810188 1.147435
H 1.058144 -7.889819 -3.321319
H 0.007558 -9.140973 -2.660651
H -0.586438 -7.493959 -2.675156
H 0.749461 -5.475142 -2.567541
H 1.688602 -3.451737 -1.671421
H 3.548691 1.798604 2.221797
H 2.046056 2.289653 1.423001
H 2.791590 4.753383 1.100996
H 4.101249 4.164029 2.138988
H 6.506208 4.313041 1.373749
H 8.152790 5.871436 0.455576
H 7.234987 8.174213 -1.937438
H 5.432272 9.105513 -1.154590
H 3.312388 6.566715 -0.502126
H 3.075897 -5.666604 1.764750
H 1.900219 -8.545481 0.522868
C -1.997702 3.779507 -4.767036
O -2.728329 2.572978 -4.559508
C -2.380555 1.816519 -3.472840
C -1.729376 2.316496 -2.332071
C -1.459127 1.465096 -1.253147
C -1.754633 0.092739 -1.321496
C -1.251989 -0.865863 -0.298559
C -2.202228 -1.531286 0.442121
C -1.723817 -2.634638 1.386487
O -2.204646 -2.708232 2.516028
O -1.149256 -3.656057 0.712354
C -1.070385 -4.874161 1.470321
C -1.544583 -6.026511 0.611287
O -1.984431 -5.876044 -0.524866
C -1.430506 -7.399741 1.260811
C -2.774431 -8.024015 1.548879
C -3.245127 -8.160775 2.867817
C -4.492589 -8.739198 3.122196
C -5.280016 -9.183884 2.044788
O -6.495109 -9.775109 2.243865
C -4.817083 -9.033605 0.732349
O -5.586218 -9.439933 -0.322308
C -3.582225 -8.470904 0.482729
C -2.399884 -0.408838 -2.474968
C -2.759850 0.472239 -3.501905
O -3.540283 0.006164 -4.525823
H -0.917306 3.622589 -4.732737
H -2.287978 4.563081 -4.059891
H -2.228852 4.142257 -5.773638
H -1.449927 3.364955 -2.254063
H -0.925771 1.850230 -0.378538
H -0.033002 -5.003160 1.758017
H -1.669884 -4.861816 2.388873
H -0.876118 -8.050153 0.571584
H -0.826920 -7.342432 2.176919
H -2.610624 -7.831363 3.694478
H -4.804148 -8.862059 4.160149
H -6.788258 -9.517119 3.135507
H -6.460481 -9.582103 0.081956
H -3.253473 -8.377011 -0.550947
H -2.623388 -1.471403 -2.561284
H -4.069373 -0.733062 -4.176786
C -11.554824 -1.537238 -1.469183
O -10.934422 -0.287640 -1.211425
C -9.681207 -0.336068 -0.663596
C -8.947668 -1.504123 -0.458957
C -7.718465 -1.444025 0.210684
C -7.170554 -0.228027 0.644674
C -5.845247 -0.181153 1.353487
C -5.832249 0.157598 2.680714
C -4.537648 -0.160504 3.420860
O -3.442428 0.308830 3.228823
O -4.925762 -1.071380 4.351441
C -3.965776 -1.653503 5.225432
C -4.767774 -2.701273 5.960095
O -4.811004 -3.858426 5.524169
C -5.633946 -2.235857 7.113810
C -4.869401 -2.136308 8.404733
C -4.167580 -0.961539 8.760644
C -3.441432 -0.906795 9.949563
C -3.464756 -2.006706 10.806904
O -2.864867 -1.957542 12.036229
C -4.189073 -3.154910 10.469921
O -4.290656 -4.179191 11.363086
C -4.848284 -3.245951 9.262705
C -7.868644 0.950856 0.358080
C -9.122585 0.887468 -0.262857
O -9.822428 2.038997 -0.507231
H -11.707995 -2.106634 -0.547234
H -11.012335 -2.132317 -2.216361
H -12.541708 -1.325751 -1.884625
H -9.303956 -2.478763 -0.768317
H -7.188873 -2.381896 0.357673
H -3.577689 -0.893935 5.896121
H -3.216645 -2.173835 4.636168
H -6.486016 -2.919948 7.202656
H -6.114170 -1.280097 6.882790
H -4.191757 -0.088526 8.112060
H -2.924030 0.011141 10.220164
H -2.368657 -1.119820 12.090188
H -3.677308 -3.930117 12.078475
H -5.340683 -4.181981 9.004629
H -7.398252 1.903885 0.585108
H -9.720673 2.646869 0.246665
C -12.394073 6.062502 4.363307
O -11.996824 5.000091 3.501599
C -10.796037 4.431496 3.859274
C -10.276626 4.416463 5.145642
C -9.031711 3.834229 5.370304
C -8.286330 3.286993 4.321743
C -6.898330 2.709968 4.561423
C -5.838236 3.588497 4.748483
C -6.295929 5.056916 4.915352
O -6.746742 5.755482 4.026344
O -6.300618 5.393420 6.234222
C -7.102934 6.530965 6.565366
C -6.499568 7.378485 7.686812
O -6.414289 8.600146 7.552260
C -6.217722 6.667764 8.993073
C -5.226069 7.247053 9.979259
C -5.180321 6.666449 11.267165
C -4.263366 7.098386 12.223519
C -3.379801 8.124384 11.900634
O -2.514527 8.588727 12.840133
C -3.402339 8.699586 10.625908
O -2.527379 9.721419 10.372517
C -4.306453 8.267854 9.665888
C -8.836499 3.259006 3.040283
C -10.093871 3.811459 2.819242
O -10.599203 3.733214 1.558946
H -11.569519 6.767583 4.530299
H -12.776092 5.670792 5.313966
H -13.199262 6.599755 3.859035
H -10.773904 4.856571 6.006266
H -8.625510 3.838478 6.365100
H -7.264107 7.192292 5.702921
H -8.080584 6.179033 6.911490
H -5.917887 5.649348 8.746833
H -7.196822 6.621578 9.474097
H -5.844518 5.842979 11.518454
H -4.250654 6.666599 13.214024
H -1.978136 9.242448 12.343731
H -2.644896 9.950669 9.428489
H -4.325166 8.724169 8.680939
H -8.314237 2.827940 2.206070
H -11.441905 4.220599 1.592185
C -1.490765 4.414350 11.839362
O -2.681851 3.925514 11.220880
C -2.910569 4.388604 9.949230
C -2.265650 5.455044 9.342063
C -2.514507 5.788894 7.999012
C -3.461137 5.079809 7.240928
C -3.408867 5.165756 5.727930
C -3.184762 6.318856 5.055684
C -3.717659 7.623012 5.570834
O -3.250295 8.348704 6.453374
O -4.873341 7.849933 4.912627
C -5.215743 9.212068 4.596895
C -5.794967 9.137426 3.186921
O -5.444681 8.243512 2.411853
C -6.805448 10.204500 2.782228
C -7.694295 9.750748 1.637803
C -8.417995 8.537773 1.735977
C -9.142328 8.036883 0.654479
C -9.145545 8.754365 -0.545966
O -9.797525 8.298151 -1.661592
C -8.437117 9.964450 -0.644266
O -8.412252 10.647105 -1.825617
C -7.732659 10.469256 0.432614
C -4.127987 4.022727 7.877808
C -3.858847 3.684093 9.198683
O -4.496196 2.591047 9.724854
H -1.256142 3.753052 12.677232
H -0.626106 4.398984 11.165354
H -1.645357 5.416975 12.245148
H -1.519016 6.056928 9.872570
H -1.870508 6.552786 7.558184
H -4.355464 9.897712 4.586085
H -5.980998 9.531725 5.304328
H -6.242338 11.111096 2.515318
H -7.451459 10.440410 3.639404
H -8.335460 7.946798 2.645263
H -9.630261 7.067950 0.764462
H -10.206855 7.450436 -1.413113
H -9.057630 10.176648 -2.379830
H -7.177765 11.396942 0.295801
H -4.823530 3.368907 7.360705
H -4.157110 2.541724 10.642004
C -3.593556 -5.596589 -5.017875
O -3.064997 -5.366916 -6.320027
C -1.701054 -5.313829 -6.413267
C -0.822219 -5.900404 -5.489867
C 0.554192 -5.785685 -5.667105
C 1.080962 -5.021062 -6.722131
C 2.583482 -4.809597 -6.818731
C 3.065332 -4.013961 -5.808348
C 2.012336 -3.162604 -5.129432
O 1.643187 -3.266577 -3.972635
O 1.527264 -2.274696 -6.018143
C 0.253239 -1.723011 -5.704845
C -0.330744 -1.137209 -6.977780
O 0.251333 -1.232681 -8.066493
C -1.685614 -0.478364 -6.810468
C -2.544759 -0.488688 -8.049155
C -3.520968 -1.488248 -8.240663
C -4.275616 -1.540066 -9.413620
C -4.065851 -0.562464 -10.391492
O -4.766966 -0.565727 -11.567425
C -3.129932 0.450018 -10.181643
O -2.959219 1.411078 -11.136282
C -2.366988 0.491906 -9.032215
C 0.196718 -4.418410 -7.619371
C -1.159775 -4.628463 -7.508342
O -1.957744 -4.138932 -8.499692
H -4.587971 -5.149511 -4.977681
H -3.009988 -5.126972 -4.219057
H -3.697183 -6.668777 -4.852591
H -1.176064 -6.431680 -4.608335
H 1.229336 -6.232461 -4.939664
H -0.421379 -2.511144 -5.345445
H 0.342452 -0.943773 -4.955377
H -2.212622 -1.051051 -6.039721
H -1.539777 0.541141 -6.433528
H -3.658051 -2.258948 -7.481734
H -4.989896 -2.349998 -9.548985
H -5.524580 -1.167160 -11.434289
H -3.590492 1.156725 -11.834134
H -1.625272 1.271967 -8.929150
H 0.577443 -3.774165 -8.406708
H -1.453028 -3.449753 -8.974469
C 9.641868 2.663014 -6.054846
O 8.218210 2.697347 -5.960413
C 7.712037 1.484823 -5.586255
C 7.889558 0.331629 -6.359527
C 7.414695 -0.892410 -5.877312
C 6.781475 -0.934114 -4.640746
C 6.231410 -2.230674 -4.103054
C 6.882526 -2.596569 -2.964396
C 8.453051 -2.447515 -2.961729
O 9.188818 -2.265346 -2.007082
O 8.916368 -2.703550 -4.208584
C 10.289767 -2.390446 -4.483154
C 10.470144 -2.535842 -6.002413
O 9.983794 -3.494396 -6.596615
C 11.269848 -1.451034 -6.722947
C 10.876647 -1.158122 -8.170690
C 11.814263 -0.482437 -8.986757
C 11.463721 -0.085285 -10.274555
C 10.176111 -0.334696 -10.750735
O 9.847163 0.117305 -11.993891
C 9.229283 -0.974249 -9.953981
O 7.947466 -1.058656 -10.435445
C 9.586069 -1.431019 -8.697377
C 6.502689 0.255442 -3.929494
C 6.996828 1.452434 -4.395358
O 6.781220 2.573064 -3.663608
H 9.945325 2.479055 -7.093963
H 10.100016 1.938757 -5.371797
H 9.999019 3.647023 -5.744470
H 8.374085 0.373531 -7.317178
H 7.476993 -1.808504 -6.472485
H 10.928340 -3.121552 -3.975604
H 10.523333 -1.367056 -4.161370
H 12.327806 -1.739228 -6.673156
H 11.173552 -0.509887 -6.162482
H 12.816763 -0.249624 -8.621595
H 12.171967 0.435084 -10.907557
H 8.886523 -0.065077 -12.031032
H 7.343071 -1.138847 -9.664822
H 8.857366 -1.968370 -8.091930
H 5.901039 0.244254 -3.028145
H 7.005362 3.300236 -4.276986
C 10.226057 -3.481584 5.509245
O 9.816760 -4.393162 4.502860
C 8.845766 -3.971698 3.638446
C 8.373862 -2.656501 3.548448
C 7.404798 -2.328459 2.597931
C 6.907728 -3.292451 1.708989
C 5.736275 -2.962952 0.821381
C 4.478705 -3.183062 1.351572
C 4.177889 -3.628965 2.822879
O 3.111320 -4.100438 3.200752
O 5.191220 -3.438900 3.687679
C 5.055452 -4.187557 4.894574
C 5.079800 -5.692436 4.587412
O 5.452424 -6.117086 3.491839
C 4.672303 -6.601256 5.725480
C 4.439915 -8.033094 5.294268
C 3.141683 -8.466597 4.980534
C 2.919671 -9.785624 4.566774
C 3.994425 -10.658508 4.475587
O 3.744024 -11.958196 4.137845
C 5.294894 -10.229603 4.727516
O 6.321082 -11.123121 4.558407
C 5.527370 -8.916621 5.155023
C 7.348403 -4.619879 1.839910
C 8.299159 -4.953233 2.803663
O 8.632577 -6.269105 2.981685
H 10.983548 -3.986908 6.109479
H 9.400553 -3.210713 6.177311
H 10.692117 -2.588675 5.080374
H 8.713535 -1.873687 4.218241
H 6.909763 -1.359763 2.631936
H 5.916328 -3.941983 5.523945
H 4.147769 -3.891106 5.436315
H 5.449812 -6.553217 6.498676
H 3.757672 -6.192382 6.174317
H 2.291692 -7.791982 5.032954
H 1.921796 -10.127141 4.335594
H 4.632519 -12.354247 4.086617
H 7.145287 -10.650205 4.767218
H 6.533205 -8.553544 5.349176
H 6.868072 -5.404757 1.259934
H 7.860522 -6.776161 2.660658
C 2.303028 2.457809 5.496354
O 2.166888 1.046320 5.553722
C 1.582244 0.464832 4.457744
C 0.732778 1.090071 3.536973
C 0.272525 0.366424 2.416605
C 0.663763 -0.973518 2.220135
C 1.069451 -1.431500 0.798487
C 0.271673 -1.142309 -0.272606
C 1.155394 -0.836620 -1.504707
O 2.179771 -1.417845 -1.843287
O 0.825613 0.350115 -2.072992
C 1.755411 0.687262 -3.087812
C 1.308476 1.875275 -3.873295
O 0.613271 1.741803 -4.887073
C 1.734517 3.220099 -3.334476
C 2.492017 4.035416 -4.347633
C 2.077889 5.348363 -4.638118
C 2.770317 6.119050 -5.559709
C 3.894600 5.591204 -6.191279
O 4.547550 6.396024 -7.087377
C 4.316661 4.289859 -5.904612
O 5.372311 3.710105 -6.547193
C 3.638220 3.515285 -4.983861
C 1.281846 -1.635172 3.283515
C 1.824721 -0.902522 4.328946
O 2.651290 -1.550777 5.206674
H 1.333480 2.951978 5.424980
H 2.773526 2.798745 6.420809
H 2.943428 2.753431 4.658222
H 0.425285 2.124188 3.617465
H -0.252514 0.910130 1.631380
H 2.746530 0.872122 -2.662693
H 1.815672 -0.151120 -3.777255
H 2.372880 3.089273 -2.452398
H 0.829386 3.737666 -2.980277
H 1.209819 5.762761 -4.132711
H 2.443105 7.132301 -5.777804
H 5.481205 6.119678 -7.059662
H 5.412397 4.075472 -7.450582
H 3.989260 2.513751 -4.768018
H 1.530145 -2.676755 3.214975
H 2.932473 -0.861229 5.838243
C -8.256236 -5.563132 0.859864
O -6.947173 -6.088004 0.644543
C -6.055499 -5.060813 0.603358
C -5.602859 -4.548447 1.820028
C -4.847435 -3.377997 1.810278
C -4.487592 -2.758970 0.598021
C -3.745968 -1.443390 0.510946
C -4.576772 -0.356650 0.558240
C -4.586731 0.599892 -0.581089
O -4.310721 1.779043 -0.497054
O -5.235380 0.033760 -1.620453
C -5.977329 0.939427 -2.476623
C -6.896629 0.050613 -3.305192
O -6.719255 -1.170674 -3.398296
C -8.014406 0.757588 -4.055832
C -7.652543 1.015369 -5.496295
C -7.659382 -0.056908 -6.412837
C -7.338104 0.166333 -7.749189
C -7.002411 1.437204 -8.168879
O -6.725922 1.645395 -9.485601
C -6.955422 2.503588 -7.269685
O -6.600112 3.739724 -7.736288
C -7.294509 2.301363 -5.932027
C -4.857699 -3.357513 -0.625740
C -5.686095 -4.478983 -0.614940
O -6.264206 -4.910465 -1.770842
H -8.967797 -6.355614 0.623765
H -8.394792 -5.296450 1.912554
H -8.477578 -4.704707 0.211328
H -5.874972 -4.991114 2.766892
H -4.513005 -2.967859 2.756431
H -6.560326 1.652676 -1.879384
H -5.309455 1.503733 -3.125703
H -8.283949 1.697965 -3.551740
H -8.914973 0.137619 -4.003019
H -7.906136 -1.063914 -6.087155
H -7.363932 -0.644916 -8.465841
H -6.423446 2.571239 -9.516733
H -6.789344 4.377857 -7.030755
H -7.279226 3.126313 -5.220778
H -4.577150 -2.867824 -1.556148
H -6.011120 -4.295043 -2.478951
C -12.433298 -3.099536 2.918918
O -11.221527 -3.469015 3.572231
C -10.244803 -2.503404 3.553678
C -10.440705 -1.174506 3.165969
C -9.367603 -0.291503 3.160628
C -8.077663 -0.698779 3.538281
C -7.009138 0.348763 3.590039
C -6.945125 1.197455 4.665234
C -7.653678 0.800593 5.968414
O -8.377799 -0.176302 6.179605
O -7.324355 1.679491 6.936729
C -8.101085 1.519493 8.126672
C -8.213392 2.877715 8.782991
O -7.442692 3.799372 8.471500
C -9.342239 3.051762 9.784887
C -9.303808 4.370118 10.514269
C -9.880764 5.525751 9.943233
C -9.784743 6.761251 10.590324
C -9.107268 6.839381 11.807706
O -8.944003 8.019081 12.476661
C -8.563069 5.685185 12.380789
O -7.886282 5.767466 13.562173
C -8.651419 4.465163 11.747742
C -7.880196 -2.038849 3.910578
C -8.961892 -2.911964 3.949101
O -8.717765 -4.197672 4.374899
H -12.256130 -2.768048 1.888864
H -13.063463 -3.988369 2.850003
H -12.970676 -2.345433 3.503078
H -11.396941 -0.769020 2.859479
H -9.561248 0.739533 2.892085
H -7.555555 0.819802 8.762907
H -9.115708 1.164568 7.898300
H -10.296107 2.966400 9.247925
H -9.325940 2.215045 10.498041
H -10.377976 5.455311 8.980225
H -10.232162 7.638511 10.130189
H -9.161294 8.747881 11.872675
H -7.855388 6.722266 13.757733
H -8.173385 3.611097 12.215806
H -6.920087 -2.411576 4.239529
H -9.600687 -4.565731 4.563659
C -4.512399 4.410009 -1.956614
O -3.432705 4.818427 -1.085825
C -3.675775 4.479990 0.220729
C -4.955783 4.523018 0.759643
C -5.189833 4.007767 2.016362
C -4.154772 3.521558 2.835450
C -4.363891 3.307928 4.357636
C -3.281736 3.847505 5.013127
C -2.106181 3.020922 5.574821
O -1.426577 3.512562 6.486226
O -2.083365 1.691265 5.302170
C -1.303716 1.007519 6.324880
C -1.024773 -0.432703 5.943339
O -1.329164 -0.828067 4.817291
C -0.337985 -1.344209 6.971645
C -0.829700 -2.790517 6.978009
C -1.007066 -3.510360 5.780326
C -1.553799 -4.792062 5.772504
C -1.903359 -5.391909 6.979487
O -2.564664 -6.588908 6.977298
C -1.625431 -4.734744 8.189736
O -1.952354 -5.301299 9.388015
C -1.089250 -3.447273 8.195770
C -2.883265 3.433447 2.260251
C -2.629528 3.982740 1.009991
O -1.324367 4.019510 0.622842
H -4.076707 3.896639 -2.810883
H -5.047463 5.296527 -2.315784
H -5.224479 3.696461 -1.515524
H -5.804913 4.934123 0.229434
H -6.222437 4.055432 2.339551
H -1.883614 0.984178 7.245394
H -0.323529 1.483733 6.464582
H 0.747030 -1.338910 6.813045
H -0.498971 -0.900657 7.966959
H -0.765759 -3.049324 4.819725
H -1.754611 -5.257385 4.814199
H -2.884106 -6.716420 6.062977
H -2.456575 -6.092054 9.109017
H -0.936814 -2.942768 9.149008
H -2.055329 2.977941 2.787561
H -1.369217 4.445377 -0.264336
C 3.618821 6.761447 5.987144
O 3.254388 6.211924 4.714768
C 1.931202 6.395827 4.392678
C 1.289792 5.290930 3.803964
C -0.096080 5.291612 3.612688
C -0.859997 6.396390 3.974974
C -2.332376 6.440066 3.833792
C -2.705749 7.201843 2.827002
C -2.700797 8.168824 1.758143
O -2.638297 9.366027 1.941954
O -2.574182 7.585874 0.539988
C -1.219281 7.671685 0.124770
C -1.269660 7.256455 -1.321641
O -0.594059 6.304485 -1.714187
C -2.249002 8.052136 -2.175957
C -2.205147 7.870257 -3.673828
C -1.012796 7.959832 -4.406696
C -1.020012 7.866869 -5.807137
C -2.234928 7.704125 -6.473312
O -2.305472 7.659230 -7.840271
C -3.420905 7.591552 -5.746732
O -4.621921 7.429771 -6.373169
C -3.418769 7.694358 -4.362815
C -0.199582 7.552076 4.443648
C 1.185501 7.545828 4.638819
O 1.751656 8.711497 5.081546
H 2.814551 6.670854 6.726896
H 3.935546 7.799352 5.861296
H 4.492661 6.206658 6.352478
H 1.855497 4.410163 3.518401
H -0.565777 4.437863 3.157685
H -0.616674 6.955917 0.710115
H -0.810494 8.686176 0.201662
H -3.251470 7.780687 -1.809785
H -2.106188 9.120860 -1.965801
H -0.066133 8.113758 -3.898366
H -0.076801 7.951656 -6.338011
H -1.396440 7.661368 -8.188951
H -4.410833 7.554966 -7.317804
H -4.366424 7.644041 -3.836497
H -0.753614 8.475032 4.667015
H 2.554306 8.825694 4.540155
