496
Molecule ID: homopoly_87149
O 0.257812 2.314200 5.068207
C -0.145216 1.538279 5.921782
O 0.403002 1.306404 7.140096
C 1.612365 2.028029 7.407019
C 2.095016 1.593394 8.786139
C 3.506526 2.085578 9.059858
F 4.345819 1.483691 8.171004
F 3.558986 3.419926 8.775936
C 4.008994 1.860178 10.486459
F 3.237733 2.573396 11.359149
F 5.268177 2.372200 10.597138
C 4.004791 0.394641 10.886140
F 2.718620 -0.056854 10.920641
F 4.631036 -0.352294 9.936685
C 4.662860 0.173620 12.236748
F 5.965963 0.565528 12.185680
F 4.073160 0.958878 13.180367
C 4.573026 -1.280846 12.641128
F 5.115301 -2.080066 11.678632
F 3.265352 -1.662298 12.747704
C 5.283879 -1.502240 13.962037
F 6.597778 -1.188412 13.898602
F 4.744422 -0.770170 14.964892
F 5.211005 -2.800593 14.344458
C -1.263637 0.670081 5.670202
C -2.191731 -0.204078 5.420794
H 2.353554 1.793451 6.635255
H 1.400229 3.100925 7.411056
H 2.053798 0.498446 8.830090
H 1.398706 1.979443 9.539210
H -1.920334 -1.243542 5.237885
O -6.122733 2.043898 5.300285
C -6.318172 1.567162 4.190550
O -7.324320 1.937520 3.352375
C -8.357514 2.738501 3.948133
C -7.950656 4.188593 4.179379
C -7.678205 5.012044 2.930699
F -6.626168 4.472192 2.259464
F -7.267716 6.241539 3.351595
C -8.870391 5.175604 1.995306
F -9.095118 4.006955 1.326434
F -9.996646 5.375422 2.751526
C -8.745940 6.334430 1.014271
F -8.770651 7.518948 1.694525
F -9.873744 6.346456 0.240487
C -7.514998 6.278624 0.132097
F -6.401504 6.415738 0.898949
F -7.434297 5.054446 -0.453992
C -7.537607 7.367649 -0.915408
F -7.572503 8.593251 -0.322486
F -8.663139 7.285043 -1.678194
C -6.309418 7.256134 -1.801805
F -5.152372 7.392037 -1.114584
F -6.305248 8.224691 -2.754971
F -6.252985 6.072684 -2.453236
C -5.459364 0.489697 3.597432
C -6.001275 -0.362223 2.700668
H -9.229858 2.680540 3.289737
H -8.668871 2.279403 4.896723
H -8.725587 4.685661 4.776117
H -7.042330 4.219611 4.788693
H -7.049311 -0.273916 2.403191
O -5.343445 0.705578 -0.888818
C -4.523930 0.345311 -0.059848
O -3.821539 1.141564 0.790201
C -4.229408 2.521011 0.874389
C -3.096407 3.450424 0.429889
C -3.526738 4.897660 0.638629
F -4.651886 5.100605 -0.101063
F -3.910435 5.022809 1.945626
C -2.499498 5.991621 0.339959
F -1.403192 5.803278 1.130146
F -3.016404 7.197030 0.698490
C -2.071360 6.027937 -1.111241
F -1.251250 4.962938 -1.352472
F -3.152030 5.828843 -1.923972
C -1.387765 7.321649 -1.550121
F -2.250356 8.367978 -1.444886
F -1.118101 7.205781 -2.888528
C -0.103771 7.623855 -0.813820
F -0.348043 7.814156 0.512345
F 0.723914 6.540916 -0.879377
C 0.561117 8.859471 -1.397057
F -0.210876 9.962961 -1.238716
F 0.821028 8.750179 -2.719198
F 1.739141 9.117745 -0.776041
C -4.112020 -1.072948 0.123519
C -3.350204 -1.525309 -0.899187
H -4.462296 2.706285 1.927141
H -5.146011 2.714764 0.302800
H -2.875632 3.253290 -0.620852
H -2.191943 3.221157 1.002125
H -3.109890 -0.848735 -1.719650
O -0.478271 -5.055814 1.244719
C -0.755735 -5.202695 0.063922
O -1.185819 -6.363546 -0.505204
C -1.168519 -7.443880 0.441464
C -1.532720 -8.774302 -0.200003
C -3.021698 -9.087978 -0.321810
F -3.599254 -8.203885 -1.175596
F -3.115841 -10.302581 -0.941043
C -3.812080 -9.128069 0.988351
F -3.093453 -9.844599 1.908433
F -3.912232 -7.881785 1.524735
C -5.192861 -9.762341 0.851222
F -5.815267 -9.710673 2.071529
F -5.018510 -11.104250 0.610655
C -6.140965 -9.221293 -0.208907
F -7.276726 -9.984524 -0.201654
F -5.600062 -9.412421 -1.444630
C -6.517344 -7.774683 -0.010881
F -5.398409 -7.004160 -0.015951
F -7.088721 -7.595842 1.211599
C -7.452446 -7.323487 -1.118938
F -6.870410 -7.430815 -2.338990
F -8.602282 -8.034514 -1.156242
F -7.797547 -6.018740 -0.975909
C -0.522627 -4.112682 -0.923091
C 0.730555 -4.140775 -1.453079
H -1.802949 -7.213317 1.299535
H -0.137748 -7.546377 0.798926
H -1.074341 -9.584412 0.379590
H -1.090685 -8.823607 -1.201077
H 1.379501 -5.003333 -1.301492
O 0.325286 -0.866500 -6.229690
C 0.370238 -1.641559 -5.278238
O -0.526822 -2.647958 -5.084085
C -1.163892 -3.097712 -6.295656
C -2.437690 -2.329410 -6.605011
C -2.982606 -2.634721 -7.997767
F -2.041365 -2.276895 -8.914065
F -4.041032 -1.804925 -8.207838
C -3.404144 -4.085956 -8.216439
F -2.342578 -4.909077 -7.989636
F -4.336024 -4.416118 -7.277992
C -3.951848 -4.315759 -9.613903
F -4.994776 -3.476994 -9.847788
F -3.008471 -4.024625 -10.546522
C -4.416324 -5.746388 -9.784030
F -5.473572 -5.984254 -8.957460
F -3.429347 -6.599723 -9.367505
C -4.779273 -6.126349 -11.210643
F -3.662112 -6.109104 -11.999553
F -5.200479 -7.431578 -11.208116
C -5.858865 -5.247870 -11.811443
F -6.279429 -5.732429 -13.003215
F -6.944167 -5.150548 -11.013496
F -5.412028 -3.995740 -12.048564
C 1.514042 -1.727293 -4.267638
C 2.415538 -0.757620 -4.506166
H -1.389124 -4.153336 -6.123494
H -0.449023 -3.071779 -7.131569
H -2.250702 -1.250239 -6.529564
H -3.193691 -2.538776 -5.838771
H 2.076578 0.000507 -5.225516
O 3.924814 0.323078 -8.717514
C 4.139113 -0.120369 -7.604143
O 4.342781 -1.434653 -7.315116
C 4.072116 -2.341685 -8.405176
C 5.227367 -2.399253 -9.402037
C 4.924263 -3.269845 -10.622684
F 5.228557 -2.520226 -11.726594
F 3.584858 -3.501375 -10.709355
C 5.687512 -4.587874 -10.736806
F 7.027053 -4.350682 -10.719417
F 5.420868 -5.147828 -11.949223
C 5.327855 -5.583536 -9.653529
F 5.560867 -5.006952 -8.430894
F 3.993579 -5.848414 -9.656164
C 6.115200 -6.888167 -9.716637
F 5.735085 -7.652330 -8.638178
F 7.436986 -6.599475 -9.480975
C 6.025125 -7.744740 -10.966270
F 6.783913 -8.871225 -10.772100
F 6.611459 -7.115555 -12.022929
C 4.602423 -8.152409 -11.301199
F 3.997539 -8.769066 -10.259075
F 3.839758 -7.088663 -11.631592
F 4.558647 -9.005922 -12.350532
C 4.192068 0.717777 -6.362343
C 3.822967 2.013598 -6.505160
H 3.902972 -3.327519 -7.954687
H 3.133003 -2.051993 -8.894272
H 6.148458 -2.717533 -8.900156
H 5.452917 -1.384094 -9.750381
H 3.554900 2.381982 -7.499471
O 2.453602 6.567963 -3.310066
C 2.373234 5.569468 -4.016825
O 1.956429 5.563569 -5.307647
C 1.503080 6.846724 -5.770041
C 1.374850 6.814224 -7.286112
C 0.382115 7.838629 -7.815601
F -0.829246 7.587901 -7.249239
F 0.228692 7.603654 -9.148454
C 0.730170 9.308934 -7.596713
F 1.128656 9.497050 -6.300089
F 1.806639 9.654014 -8.354112
C -0.449800 10.245839 -7.851606
F -0.054012 11.531816 -7.601744
F -1.426915 9.986808 -6.936256
C -1.036872 10.165740 -9.244331
F -1.640190 8.959021 -9.430923
F -0.019963 10.211588 -10.157159
C -2.031206 11.265034 -9.572082
F -2.449391 11.088680 -10.866648
F -1.417346 12.483058 -9.560747
C -3.239517 11.271176 -8.652511
F -3.824996 10.054721 -8.569329
F -2.924899 11.657255 -7.394324
F -4.184452 12.139571 -9.089227
C 2.650769 4.171107 -3.524360
C 2.529824 4.083549 -2.187187
H 2.219654 7.623730 -5.483246
H 0.533786 7.043555 -5.297082
H 2.356633 6.959058 -7.746831
H 1.050630 5.818218 -7.606291
H 2.313339 4.996075 -1.628377
O 6.091127 1.524878 1.067919
C 4.902633 1.225512 0.995995
O 4.368413 0.003544 1.243702
C 5.246340 -0.998216 1.781383
C 5.326483 -2.166487 0.802979
C 5.916508 -3.394029 1.465301
F 7.036279 -2.993356 2.136008
F 5.040562 -3.809118 2.422395
C 6.310141 -4.574360 0.570129
F 6.865511 -5.519789 1.399977
F 7.318136 -4.211024 -0.262344
C 5.185070 -5.249614 -0.202076
F 4.056843 -5.251531 0.573904
F 5.494409 -6.575936 -0.372699
C 4.820819 -4.702857 -1.574951
F 3.686597 -5.362710 -1.974715
F 4.450461 -3.398742 -1.490829
C 5.883853 -4.871704 -2.643025
F 6.892243 -3.981908 -2.447726
F 6.448487 -6.106395 -2.582190
C 5.271980 -4.654946 -4.019243
F 6.211835 -4.714203 -4.996060
F 4.674860 -3.444046 -4.123106
F 4.330934 -5.578357 -4.320274
C 3.808116 2.229418 0.839148
C 3.292487 2.626336 2.026921
H 6.241757 -0.604911 1.999024
H 4.811901 -1.314066 2.732515
H 5.922889 -1.869385 -0.063795
H 4.317214 -2.389584 0.453283
H 3.625632 2.095215 2.922363
O -5.067668 -1.077378 6.713281
C -4.438643 -0.057928 6.482231
O -4.210583 0.988578 7.315124
C -4.851151 0.959071 8.597229
C -3.832571 0.487190 9.621670
C -4.316660 0.510247 11.067723
F -3.357950 -0.124085 11.803022
F -5.434099 -0.255312 11.167276
C -4.570678 1.904381 11.643608
F -3.458308 2.678090 11.476467
F -5.558931 2.511468 10.932759
C -4.953027 1.850951 13.114314
F -4.039944 1.094751 13.799549
F -6.141972 1.196582 13.259417
C -5.025146 3.205800 13.804651
F -5.340169 2.984375 15.117205
F -3.788575 3.779722 13.830197
C -6.021667 4.168093 13.205415
F -5.604237 4.566241 11.970920
F -7.222621 3.555223 13.019615
C -6.180037 5.382271 14.103915
F -5.011450 6.034882 14.296200
F -7.043722 6.277800 13.562021
F -6.671047 5.063864 15.323394
C -3.590499 0.116063 5.276145
C -4.083648 0.331660 4.039804
H -5.748836 0.330808 8.592379
H -5.167651 1.986044 8.795532
H -2.904405 1.068373 9.527989
H -3.540109 -0.541977 9.371766
H -3.367124 0.345613 3.215836
O -6.927247 -3.125976 3.305029
C -5.767218 -2.791217 3.124672
O -4.660012 -3.348496 3.683251
C -4.966453 -4.386534 4.623574
C -3.682428 -5.143250 4.944198
C -3.951656 -6.227409 5.974993
F -4.990083 -6.987889 5.533192
F -4.368850 -5.639529 7.126339
C -2.734844 -7.106975 6.233611
F -2.319887 -7.652632 5.051730
F -1.695997 -6.339111 6.670730
C -3.055244 -8.200709 7.237564
F -4.107260 -8.943231 6.793747
F -3.451213 -7.655706 8.418624
C -1.856997 -9.102900 7.463089
F -0.812723 -8.373898 7.945236
F -1.433662 -9.619144 6.277725
C -2.196051 -10.223891 8.421659
F -3.248964 -10.953803 7.951985
F -2.593124 -9.720820 9.624745
C -0.988320 -11.123812 8.601239
F -1.260856 -12.148493 9.445688
F -0.585801 -11.679493 7.434273
F 0.073206 -10.462804 9.116475
C -5.384413 -1.615469 2.284367
C -4.568728 -1.889460 1.245451
H -5.380507 -3.929802 5.529143
H -5.704773 -5.078378 4.196559
H -2.921961 -4.439615 5.307471
H -3.294078 -5.578086 4.015410
H -4.243075 -2.927752 1.176474
O -4.163453 -4.670723 -0.583692
C -3.499350 -4.035182 -1.384931
O -3.277081 -4.339417 -2.686905
C -3.789750 -5.630077 -3.069096
C -3.431239 -5.859457 -4.524258
C -3.641707 -7.291702 -5.002695
F -4.833586 -7.741345 -4.538960
F -3.754559 -7.242366 -6.361809
C -2.499504 -8.233472 -4.625730
F -2.316278 -8.226610 -3.278316
F -1.334074 -7.736765 -5.142149
C -2.738399 -9.652154 -5.116767
F -3.897335 -10.136794 -4.598290
F -2.891069 -9.659206 -6.465183
C -1.578303 -10.546313 -4.717030
F -1.428338 -10.534126 -3.362533
F -0.410179 -10.046783 -5.214398
C -1.775290 -11.964142 -5.206566
F -1.903793 -11.985597 -6.563963
F -2.930595 -12.485233 -4.708307
C -0.591713 -12.812417 -4.777613
F 0.574165 -12.353939 -5.291272
F -0.445421 -12.850424 -3.431441
F -0.729330 -14.096253 -5.192454
C -2.713611 -2.829822 -1.037562
C -1.380003 -2.929776 -0.891879
H -4.878174 -5.646853 -2.936055
H -3.324516 -6.376744 -2.426605
H -2.393993 -5.551471 -4.712269
H -4.041741 -5.179650 -5.128941
H -0.865985 -1.992959 -0.682587
O 1.376237 -0.633071 -1.473191
C 1.573042 -1.791984 -1.169137
O 1.869020 -2.266059 0.067089
C 1.445288 -1.466001 1.185660
C 1.587039 -2.378768 2.396996
C 1.073116 -1.746942 3.676911
F -0.119777 -1.142038 3.391243
F 1.920824 -0.754978 4.049549
C 0.843535 -2.734388 4.827059
F -0.104493 -3.638873 4.453261
F 0.301737 -2.052152 5.878837
C 2.107322 -3.440597 5.280688
F 2.663220 -4.120792 4.241072
F 3.032942 -2.520630 5.661551
C 1.806753 -4.403743 6.417121
F 1.198965 -3.744017 7.440702
F 0.917385 -5.344310 5.996098
C 3.073507 -5.069745 6.911147
F 3.723385 -5.690791 5.885648
F 3.939919 -4.130975 7.383819
C 2.730600 -6.072470 7.996343
F 3.847463 -6.660758 8.492670
F 1.937386 -7.066513 7.536603
F 2.086589 -5.499409 9.042805
C 1.370246 -2.964894 -2.068883
C 1.517865 -2.910309 -3.408219
H 0.393396 -1.206912 1.052416
H 2.035691 -0.556266 1.260905
H 1.026860 -3.298575 2.194555
H 2.637675 -2.667396 2.501653
H 1.311841 -3.830011 -3.964152
O 4.091535 0.123198 -1.911946
C 4.457672 -0.561704 -2.856788
O 5.673173 -1.179348 -2.929765
C 6.727662 -0.379481 -2.361475
C 8.051495 -1.118056 -2.529731
C 9.250723 -0.192402 -2.737554
F 9.011811 0.402050 -3.955322
F 10.364008 -0.949768 -2.922551
C 9.535308 0.925843 -1.729752
F 10.244670 1.908278 -2.389055
F 8.367607 1.531744 -1.374592
C 10.348243 0.574188 -0.488830
F 10.521334 1.727725 0.229892
F 11.602397 0.182042 -0.851471
C 9.732405 -0.487019 0.398624
F 8.409632 -0.241037 0.576958
F 9.779657 -1.683604 -0.252323
C 10.465501 -0.585550 1.723366
F 11.771696 -0.910751 1.509045
F 10.472619 0.616346 2.365530
C 9.802075 -1.621428 2.602847
F 9.739118 -2.836546 2.012136
F 8.538342 -1.256761 2.919176
F 10.466892 -1.783571 3.770142
C 3.817065 -0.508081 -4.199958
C 4.599174 0.166404 -5.078208
H 6.533674 -0.176600 -1.303401
H 6.753363 0.572699 -2.902530
H 7.985827 -1.762747 -3.413561
H 8.190560 -1.806846 -1.696636
H 5.623622 0.447588 -4.830523
O 4.806973 4.841616 -6.754869
C 4.685327 4.238371 -5.700727
O 5.320281 4.497254 -4.530068
C 5.998433 5.751799 -4.402476
C 7.408927 5.466502 -3.921069
C 8.196297 6.720362 -3.566724
F 8.182724 7.560723 -4.635195
F 9.495702 6.336225 -3.405745
C 7.709382 7.430648 -2.306105
F 7.666892 6.534476 -1.277891
F 6.423301 7.847037 -2.479907
C 8.592580 8.610911 -1.945723
F 9.873616 8.195602 -1.750125
F 8.633790 9.490568 -2.983860
C 8.076254 9.305782 -0.702438
F 6.800671 9.738203 -0.904255
F 8.009129 8.418336 0.328458
C 8.959583 10.471074 -0.321833
F 10.236534 10.047142 -0.093732
F 9.040140 11.371393 -1.342502
C 8.407351 11.142701 0.922837
F 7.164425 11.641781 0.729706
F 8.338921 10.296042 1.977133
F 9.190654 12.183118 1.308675
C 3.780372 3.067627 -5.492158
C 2.922395 3.068117 -4.445471
H 5.426007 6.307759 -3.658477
H 5.999035 6.327928 -5.329820
H 7.388166 4.775451 -3.067225
H 7.938709 4.918966 -4.711575
H 2.287143 2.205039 -4.284383
O 0.835105 1.860755 0.006434
C 1.324071 2.166790 -1.066873
O 0.732840 1.991314 -2.287047
C -0.573434 1.394411 -2.313424
C -1.487995 2.308040 -3.115109
C -1.309360 2.131385 -4.620406
F 0.010533 2.050991 -4.922082
F -1.860703 0.939042 -4.967935
C -1.942228 3.286191 -5.381842
F -3.227432 3.449340 -4.954546
F -1.291911 4.435477 -5.040358
C -1.912898 3.074939 -6.882588
F -0.649612 2.773335 -7.289014
F -2.692183 2.017666 -7.228656
C -2.375890 4.330669 -7.586573
F -1.441618 5.304750 -7.389287
F -3.516573 4.799109 -6.995304
C -2.652640 4.189769 -9.066615
F -3.076555 5.404791 -9.545465
F -3.703873 3.340132 -9.270367
C -1.443485 3.737973 -9.862861
F -0.360999 4.516395 -9.634713
F -1.686684 3.771165 -11.195501
F -1.094875 2.464639 -9.565771
C 2.591800 2.958591 -1.262131
C 3.647243 2.929362 -0.418552
H -0.499699 0.410604 -2.789387
H -0.986464 1.260508 -1.305905
H -2.529359 2.068422 -2.857085
H -1.291481 3.345843 -2.842568
H 4.496006 3.580937 -0.634135
O 3.292937 4.036880 4.584773
C 2.422974 4.275148 3.763907
O 1.345473 5.090731 3.960513
C 1.214095 5.591535 5.292335
C -0.196765 6.148807 5.431217
C -0.495104 6.524916 6.871244
F 0.524045 7.321721 7.306798
F -0.439485 5.405988 7.643653
C -1.813508 7.264815 7.089787
F -1.842483 8.370678 6.296184
F -1.855781 7.727150 8.373651
C -3.036475 6.392555 6.847243
F -3.035293 5.914491 5.573367
F -2.981061 5.304511 7.657330
C -4.321762 7.161471 7.102412
F -4.300670 8.321985 6.373184
F -4.382946 7.555677 8.405419
C -5.584689 6.408156 6.736626
F -5.591856 6.115899 5.404754
F -6.653883 7.250116 6.922646
C -5.802828 5.149692 7.551607
F -5.724937 5.376460 8.884445
F -4.907543 4.184079 7.257698
F -7.030970 4.623285 7.313546
C 2.412172 3.745405 2.358819
C 1.604153 4.284710 1.495073
H 1.377031 4.788854 6.016166
H 1.960495 6.377509 5.455322
H -0.900408 5.391377 5.070438
H -0.296117 7.019382 4.771161
H 0.917459 4.752224 0.826128
