992
Molecule ID: homopoly_10075681
C 6.226508 8.385631 7.553042
O 6.985341 7.191051 7.367321
C 6.240663 6.060357 7.174201
O 5.021125 6.015555 7.180492
C 7.176705 4.846880 7.020950
O 8.469089 5.228188 6.548655
C 7.314504 4.193022 8.387240
C 8.291444 3.022048 8.380031
O 8.079422 2.215661 9.574695
C 8.373907 2.746608 10.782162
O 8.934241 3.812575 10.984723
C 7.815080 1.915664 11.875781
C 7.404452 0.644652 11.722691
C 6.700200 -0.135389 12.752907
C 5.762903 -1.093477 12.320279
C 4.970319 -1.798277 13.229721
C 5.144606 -1.576373 14.584996
O 4.374769 -2.206296 15.522122
C 6.116996 -0.683059 15.029442
O 6.279355 -0.480991 16.371856
C 6.891964 0.042021 14.129875
C 8.085827 2.059934 7.196610
O 9.375340 1.504266 6.890467
C 7.495130 2.601781 5.868042
O 6.663952 1.518479 5.333265
C 6.338901 1.492463 4.018831
O 6.755334 2.215061 3.134479
C 5.232772 0.583407 3.799846
C 4.066292 -0.021675 3.858589
C 3.415820 -0.758217 2.730037
C 3.752673 -0.550665 1.393606
C 3.068524 -1.224085 0.375390
C 2.009301 -2.053398 0.701483
O 1.288576 -2.651721 -0.280005
C 1.616854 -2.230371 2.009748
O 0.503303 -2.998082 2.233052
C 2.330848 -1.618805 3.030139
C 6.587357 3.821595 6.053320
H 5.889851 8.756609 6.582122
H 5.380208 8.234033 8.227955
H 6.888576 9.128643 8.005541
H 8.780351 5.956834 7.121697
H 6.339983 3.858653 8.757044
H 7.659819 4.937208 9.117025
H 9.329789 3.383966 8.389712
H 7.720425 2.449678 12.816943
H 7.513944 0.153637 10.755662
H 5.621644 -1.273395 11.257691
H 4.223714 -2.494376 12.859638
H 3.671796 -2.687852 15.051379
H 5.610754 -1.065469 16.789415
H 7.617528 0.750986 14.513678
H 7.464938 1.220328 7.530346
H 9.538092 0.741242 7.483641
H 8.303395 2.811523 5.153253
H 4.553442 0.133767 1.128740
H 3.366602 -1.089464 -0.657831
H 0.530561 -3.084756 0.165649
H 0.426168 -3.231398 3.177132
H 2.016372 -1.773513 4.052268
H 5.597949 3.501430 6.404072
H 6.411958 4.279835 5.072001
C 3.639766 1.662904 14.941013
O 3.489425 1.633862 13.520738
C 2.427856 0.906134 13.096158
O 1.805221 0.092385 13.774840
C 1.975143 1.300527 11.679309
O 0.608138 0.805988 11.552046
C 1.883727 2.819418 11.550581
C 2.053217 3.225091 10.094330
O 1.842724 4.641069 9.897786
C 0.537530 5.020447 9.897958
O -0.406586 4.357370 10.308666
C 0.393663 6.344395 9.253371
C -0.847417 6.830205 9.090061
C -1.257670 8.021194 8.329443
C -2.638279 8.286376 8.233309
C -3.123772 9.345220 7.459507
C -2.221768 10.151213 6.784230
O -2.633210 11.175216 5.978909
C -0.853346 9.915572 6.895013
O 0.024812 10.725032 6.226355
C -0.363618 8.859087 7.655586
C 3.489913 2.868019 9.642926
O 4.430005 3.602637 10.447964
C 3.808439 1.354592 9.760441
O 3.874265 0.833047 8.380078
C 4.225164 -0.459236 8.125542
O 4.730369 -1.214045 8.942432
C 3.707646 -0.923625 6.737181
C 3.363175 -2.264306 6.844358
C 2.042302 -2.576229 7.531668
C 0.956709 -3.051663 6.776671
C -0.258436 -3.402992 7.381204
C -0.379560 -3.306321 8.760265
O -1.542378 -3.600718 9.413790
C 0.713445 -2.908973 9.526074
O 0.610416 -2.862729 10.884578
C 1.917995 -2.558930 8.931867
C 2.740000 0.574995 10.554193
H 4.617707 2.096115 15.177265
H 3.574028 0.666734 15.387605
H 2.865874 2.308582 15.370408
H 0.389899 0.345330 12.390989
H 0.929408 3.178429 11.954610
H 2.638435 3.345320 12.146236
H 1.328635 2.680941 9.478049
H 1.287904 6.797836 8.844050
H -1.676257 6.266660 9.518547
H -3.365886 7.654271 8.741289
H -4.197405 9.498977 7.383759
H -3.604270 11.114325 5.901606
H -0.553189 11.388720 5.799365
H 0.708630 8.697302 7.687749
H 3.658843 3.223808 8.621039
H 4.171733 4.542459 10.361452
H 4.802557 1.215721 10.205900
H 1.051848 -3.157611 5.701185
H -1.075628 -3.750096 6.762492
H -2.205019 -3.869255 8.752189
H -0.316320 -3.117523 11.071904
H 2.754494 -2.327588 9.578054
H 2.002411 0.210734 9.825911
H 3.192418 -0.339936 10.949765
C 8.922276 -12.654746 3.824458
O 9.411700 -11.316903 3.920485
C 8.510212 -10.400869 4.381368
O 7.346902 -10.656302 4.691513
C 9.205259 -9.032338 4.507024
O 10.495507 -9.236644 5.118930
C 9.425057 -8.412528 3.124948
C 10.307623 -7.166865 3.205862
O 10.200636 -6.405706 1.979971
C 11.278739 -6.485750 1.152402
O 12.238219 -7.237753 1.268247
C 11.153443 -5.457122 0.091281
C 12.243457 -5.049585 -0.569484
C 12.338691 -3.948747 -1.559217
C 11.217929 -3.275496 -2.072215
C 11.363722 -2.220659 -2.985236
C 12.628142 -1.836618 -3.381036
O 12.775027 -0.813026 -4.275346
C 13.751266 -2.483855 -2.885496
O 14.968724 -2.028512 -3.303798
C 13.617798 -3.537762 -1.981455
C 9.987534 -6.318425 4.453507
O 10.327707 -4.948871 4.260029
C 8.595192 -6.588610 5.087092
O 7.427864 -6.240413 4.300909
C 7.126106 -4.913926 4.220847
O 7.964317 -4.046245 4.077258
C 5.667685 -4.698167 4.518514
C 4.874573 -5.285037 3.556331
C 3.613527 -5.871910 4.061401
C 3.643266 -7.079270 4.789954
C 2.469100 -7.638559 5.311106
C 1.269931 -6.955469 5.142591
O 0.106589 -7.383396 5.720698
C 1.233954 -5.770463 4.413912
O 0.046509 -5.109938 4.251876
C 2.391721 -5.242257 3.855871
C 8.426421 -8.083960 5.440751
H 8.352848 -12.937321 4.715927
H 9.785901 -13.323348 3.744861
H 8.312081 -12.762501 2.925395
H 10.921912 -9.978232 4.641224
H 8.461969 -8.171030 2.665249
H 9.902175 -9.130123 2.440214
H 11.345985 -7.490226 3.343040
H 10.164896 -5.052126 -0.054797
H 13.196248 -5.528572 -0.329701
H 10.212675 -3.546967 -1.768287
H 10.496443 -1.686420 -3.360438
H 13.747890 -0.697246 -4.341344
H 15.656515 -2.668943 -3.049700
H 14.506429 -4.012830 -1.575346
H 10.695877 -6.641937 5.228723
H 9.502932 -4.423841 4.190372
H 8.513234 -6.009883 6.022573
H 4.587788 -7.585999 4.972821
H 2.527947 -8.550077 5.897974
H 0.356393 -8.014807 6.418828
H -0.575275 -5.637548 4.798163
H 2.364762 -4.326186 3.291201
H 7.356676 -8.328701 5.438132
H 8.780862 -8.235662 6.467153
C 7.638016 -0.425808 -6.643492
O 7.625277 -1.834298 -6.394164
C 6.925257 -2.219505 -5.277127
O 6.329528 -1.464046 -4.528535
C 7.070720 -3.751736 -5.119466
O 6.844812 -4.378040 -6.395613
C 8.510675 -4.047863 -4.722352
C 8.628984 -5.470991 -4.195376
O 10.033260 -5.753196 -4.000723
C 10.675779 -6.136768 -5.141098
O 10.167430 -6.674700 -6.110026
C 12.044197 -5.590243 -5.102047
C 12.551440 -5.123098 -6.254652
C 13.777360 -4.330060 -6.305525
C 15.031242 -4.879741 -6.003353
C 16.180424 -4.085850 -6.062457
C 16.063758 -2.746720 -6.413449
O 17.185594 -1.971208 -6.449873
C 14.824963 -2.193718 -6.716981
O 14.773197 -0.861861 -7.018163
C 13.678996 -2.980529 -6.676690
C 7.870690 -5.634805 -2.858096
O 7.483988 -7.010510 -2.732385
C 6.639039 -4.684737 -2.744136
O 5.611399 -5.291332 -1.910227
C 4.755615 -4.468467 -1.239246
O 4.784412 -3.258282 -1.260547
C 3.904835 -5.313533 -0.345257
C 2.627506 -5.678559 -0.767814
C 2.071590 -6.851955 -0.009838
C 2.397081 -8.157344 -0.435696
C 1.876896 -9.277782 0.218839
C 0.968482 -9.091360 1.247230
O 0.407495 -10.174005 1.857408
C 0.593909 -7.811563 1.637620
O -0.402476 -7.701953 2.565489
C 1.173669 -6.691118 1.053575
C 6.064730 -4.355058 -4.119766
H 6.702642 -0.125885 -7.110054
H 8.457366 -0.216987 -7.338530
H 7.819938 0.146454 -5.729853
H 7.374966 -3.880447 -7.047206
H 8.855826 -3.342790 -3.961932
H 9.181462 -3.902774 -5.578952
H 8.210560 -6.189760 -4.915668
H 12.520860 -5.454789 -4.142103
H 12.006668 -5.217709 -7.192035
H 15.122694 -5.930246 -5.727752
H 17.155870 -4.509109 -5.839634
H 16.866919 -1.093342 -6.741735
H 13.836614 -0.621925 -7.153820
H 12.708168 -2.550080 -6.906511
H 8.537177 -5.439926 -2.010521
H 8.274612 -7.555136 -2.905511
H 6.983350 -3.756128 -2.278966
H 3.093956 -8.306610 -1.260101
H 2.166891 -10.276540 -0.092728
H -0.214285 -9.785131 2.508438
H -0.621202 -6.752660 2.652587
H 0.892570 -5.691381 1.375338
H 5.665349 -5.293090 -4.515961
H 5.210505 -3.684367 -3.985530
C 2.712321 5.751628 -4.735494
O 2.430457 4.587019 -5.515205
C 2.621997 3.413625 -4.841765
O 3.049214 3.316630 -3.705099
C 2.257479 2.215789 -5.767469
O 1.479370 2.619485 -6.908692
C 3.587401 1.637818 -6.276716
C 3.414306 0.312939 -7.028421
O 2.929710 0.580437 -8.358601
C 3.851487 0.655417 -9.345288
O 5.065011 0.605337 -9.230829
C 3.106020 0.818122 -10.606089
C 3.737562 0.804549 -11.787372
C 3.031537 0.902257 -13.070289
C 1.920750 1.745142 -13.254987
C 1.280477 1.826183 -14.495899
C 1.765894 1.071370 -15.558270
O 1.203458 1.127067 -16.801040
C 2.865951 0.238151 -15.383004
O 3.335408 -0.503176 -16.429476
C 3.503454 0.151855 -14.151967
C 2.433700 -0.655065 -6.350257
O 1.256177 -0.860964 -7.143406
C 2.030326 -0.205201 -4.937655
O 1.063430 -1.166059 -4.436737
C 1.466374 -1.975402 -3.420954
O 2.507505 -1.806234 -2.800330
C 0.674953 -3.266162 -3.383544
C -0.573730 -3.290125 -3.972725
C -0.685804 -4.396086 -4.983782
C 0.014477 -4.250574 -6.202969
C 0.044678 -5.276639 -7.145759
C -0.679328 -6.421735 -6.896948
O -0.627732 -7.504950 -7.728373
C -1.504882 -6.505573 -5.780308
O -2.292841 -7.607410 -5.620127
C -1.513812 -5.503595 -4.815862
C 1.405098 1.193644 -4.992061
H 2.395301 6.627833 -5.305591
H 2.161156 5.727940 -3.792420
H 3.790908 5.823496 -4.554194
H 1.385802 3.595195 -6.844958
H 4.073101 2.369673 -6.934838
H 4.271384 1.475643 -5.429817
H 4.390750 -0.183452 -7.072982
H 2.030805 0.910660 -10.522404
H 4.815893 0.668246 -11.831894
H 1.548260 2.356312 -12.436097
H 0.425152 2.485065 -14.613022
H 0.516763 1.817177 -16.793449
H 2.758598 -0.273039 -17.180869
H 4.358155 -0.511499 -14.049189
H 2.904343 -1.637661 -6.297827
H 1.084864 -0.038691 -7.637409
H 2.923614 -0.173681 -4.304520
H 0.576811 -3.339389 -6.411601
H 0.656850 -5.165504 -8.035665
H 0.110379 -7.377146 -8.351769
H -2.051139 -8.177558 -6.379664
H -2.164172 -5.575811 -3.956407
H 0.394379 1.131479 -5.413219
H 1.257883 1.539451 -3.968672
C -6.301831 -7.349907 2.533188
O -5.385963 -6.510760 1.834956
C -5.042768 -5.393825 2.539198
O -5.406823 -5.167138 3.693083
C -4.056727 -4.503453 1.737469
O -2.765372 -5.141745 1.915682
C -3.983437 -3.104910 2.355431
C -5.206730 -2.224943 2.047040
O -5.971709 -2.093488 3.267880
C -6.586535 -0.910073 3.495718
O -6.521709 0.075892 2.774917
C -7.365919 -0.959016 4.754332
C -7.557455 -2.081334 5.467853
C -8.269561 -2.187049 6.754741
C -8.695089 -3.463682 7.169327
C -9.294369 -3.658127 8.418881
C -9.477841 -2.573033 9.257947
O -10.004000 -2.782234 10.500292
C -9.096154 -1.299739 8.853545
O -9.343396 -0.222677 9.656312
C -8.477823 -1.100363 7.620697
C -6.137171 -2.797787 0.959357
O -6.957862 -3.850570 1.475140
C -5.339100 -3.327929 -0.230546
O -4.668034 -2.223488 -0.891767
C -4.390281 -2.392461 -2.219267
O -4.598576 -3.414208 -2.859358
C -3.704949 -1.157966 -2.821225
C -4.500135 -0.058733 -3.051264
C -5.925469 -0.189600 -2.574612
C -6.909415 -0.790213 -3.373172
C -8.200189 -0.974547 -2.884254
C -8.495162 -0.584810 -1.584595
O -9.734792 -0.862505 -1.081100
C -7.526411 0.008878 -0.783214
O -7.858715 0.311416 0.507286
C -6.248754 0.222895 -1.272091
C -4.319345 -4.385365 0.218291
H -7.179408 -6.781372 2.855760
H -6.644710 -8.131935 1.850246
H -5.790934 -7.823548 3.376635
H -2.806509 -5.985833 1.414998
H -3.804093 -3.162548 3.437342
H -3.088737 -2.615367 1.955247
H -4.827691 -1.242891 1.728146
H -7.770391 -0.000113 5.054205
H -7.145428 -3.025477 5.107840
H -8.546146 -4.330069 6.527872
H -9.592709 -4.653086 8.738785
H -9.580357 -2.126505 11.084920
H -10.246929 -0.355762 10.001851
H -8.155980 -0.094432 7.357587
H -6.827521 -2.021685 0.644947
H -7.447860 -3.477809 2.234397
H -6.046151 -3.789566 -0.934095
H -6.683007 -1.141994 -4.378773
H -8.957709 -1.457346 -3.496251
H -9.670442 -0.675966 -0.117516
H -7.065089 0.497827 1.053776
H -5.479243 0.632674 -0.626627
H -4.650919 -5.349425 -0.162607
H -3.365914 -4.182817 -0.279564
C -0.257819 5.633984 -10.967038
O -0.636701 5.802993 -9.598129
C -1.688386 6.641408 -9.429078
O -2.304533 7.190003 -10.341521
C -2.020985 6.903178 -7.951338
O -3.187730 7.750851 -7.918584
C -0.886914 7.677311 -7.267468
C -1.237946 7.957682 -5.802558
O -0.135291 8.616941 -5.148513
C -0.264691 9.960393 -5.002389
O -1.160941 10.661079 -5.432422
C 0.870278 10.451345 -4.196184
C 0.842770 11.708445 -3.731355
C 1.915143 12.291775 -2.920354
C 3.257991 12.233935 -3.326627
C 4.264149 12.824980 -2.552885
C 3.919047 13.472560 -1.373154
O 4.854922 14.061728 -0.571622
C 2.588717 13.537074 -0.971040
O 2.257343 14.176878 0.190068
C 1.583881 12.961258 -1.736808
C -1.562677 6.657640 -5.052132
O -0.420406 5.788124 -5.031141
C -2.734624 5.927645 -5.722098
O -3.027068 4.751483 -4.923653
C -4.327605 4.360937 -4.989929
O -5.084247 4.630118 -5.917169
C -4.853388 3.760476 -3.712627
C -5.476630 4.681621 -2.899483
C -4.888021 6.072707 -2.821101
C -3.913295 6.330937 -1.841434
C -3.333285 7.598106 -1.714913
C -3.751295 8.615976 -2.559298
O -3.207384 9.869314 -2.500657
C -4.734086 8.382512 -3.511910
O -5.142988 9.381634 -4.343689
C -5.299028 7.120034 -3.655305
C -2.384248 5.619417 -7.191010
H 0.448828 4.800994 -11.032233
H 0.240665 6.543333 -11.320456
H -1.122609 5.408655 -11.597814
H -3.291370 8.135069 -8.815416
H 0.062327 7.128153 -7.332438
H -0.714421 8.636162 -7.775301
H -2.136493 8.589722 -5.757023
H 1.678580 9.760724 -3.990375
H -0.007907 12.356750 -3.934192
H 3.530311 11.727704 -4.248898
H 5.292504 12.767297 -2.889802
H 5.726555 13.945531 -0.988579
H 3.106259 14.509062 0.539443
H 0.555355 13.027586 -1.400164
H -1.788539 6.880454 -4.005210
H -0.744237 4.953644 -4.630201
H -3.606426 6.593402 -5.699224
H -3.603241 5.549514 -1.153675
H -2.579305 7.758982 -0.951239
H -2.446741 9.823705 -1.893505
H -4.664044 10.179151 -4.033605
H -6.045229 6.979686 -4.428051
H -1.569559 4.890907 -7.242158
H -3.245881 5.151875 -7.675808
C -2.383094 11.157074 0.555036
O -3.285226 10.104120 0.903685
C -4.410790 10.532241 1.540714
O -4.697034 11.708132 1.750230
C -5.317412 9.358114 1.962563
O -6.357779 9.862848 2.825589
C -4.529711 8.341222 2.785904
C -5.417626 7.164736 3.157886
O -4.674168 6.198913 3.928160
C -4.768023 6.360447 5.270920
O -5.102874 7.378891 5.860019
C -4.504043 5.054741 5.898505
C -4.681025 4.888116 7.218659
C -4.534811 3.582595 7.864805
C -3.741405 3.463571 9.016715
C -3.469991 2.206380 9.572633
C -4.013201 1.074758 8.982774
O -3.727621 -0.184875 9.433309
C -4.843213 1.192896 7.869856
O -5.351490 0.075089 7.276431
C -5.122133 2.432805 7.315381
C -5.921282 6.478195 1.880387
O -6.677353 5.312652 2.254684
C -6.789831 7.442192 1.043977
O -7.275976 6.688613 -0.123840
C -7.785709 7.310325 -1.208296
O -7.603357 8.491259 -1.478034
C -8.610434 6.391879 -2.106948
C -9.776659 7.014835 -2.491561
C -9.915735 7.412456 -3.925169
C -9.096001 8.450756 -4.411789
C -9.236296 8.946851 -5.710168
C -10.207650 8.401220 -6.533436
O -10.404250 8.845737 -7.810514
C -11.032850 7.383083 -6.059656
O -12.006324 6.872481 -6.879906
C -10.892213 6.880780 -4.775876
C -5.996915 8.734571 0.741672
H -2.838027 11.821566 -0.187125
H -2.079805 11.715942 1.445764
H -1.487447 10.708089 0.114385
H -6.653030 10.713072 2.446097
H -3.647606 7.981524 2.239200
H -4.135517 8.805989 3.697586
H -6.290851 7.482627 3.738253
H -4.236272 4.249679 5.227533
H -4.925126 5.729302 7.857704
H -3.269608 4.339771 9.460705
H -2.808952 2.143892 10.433172
H -3.012424 -0.102801 10.090388
H -5.103656 -0.656011 7.879469
H -5.758972 2.494514 6.437513
H -5.070581 6.113847 1.287329
H -6.438712 4.622102 1.593676
H -7.690135 7.683658 1.618236
H -8.342971 8.907894 -3.769223
H -8.600688 9.764795 -6.036986
H -9.736943 9.526623 -7.994200
H -11.904445 7.368526 -7.714563
H -11.540910 6.078332 -4.443782
H -5.270935 8.536495 -0.042639
H -6.684428 9.487610 0.338632
C 6.436225 5.334598 -1.846251
O 5.448485 5.306562 -0.815057
C 4.772230 4.136735 -0.673977
O 5.042061 3.098520 -1.275401
C 3.555284 4.263927 0.282058
O 2.360785 3.788208 -0.361738
C 3.306768 5.711634 0.708538
C 2.232125 5.863291 1.789883
O 2.263092 7.245741 2.214724
C 1.549311 8.104414 1.445126
O 0.799047 7.827711 0.522644
C 1.847116 9.474748 1.877948
C 2.835412 10.227665 1.365203
C 3.797234 9.867550 0.312808
C 5.159738 10.149329 0.528223
C 6.120516 9.873398 -0.450412
C 5.711732 9.325614 -1.659123
O 6.598606 9.058803 -2.666695
C 4.364870 9.045427 -1.885343
O 3.985362 8.508061 -3.084032
C 3.404903 9.319779 -0.918830
C 2.496791 4.951375 3.004507
O 1.405179 5.050468 3.929222
C 2.695004 3.491641 2.562550
O 3.093158 2.666380 3.687669
C 2.276260 1.630253 4.025684
O 1.106218 1.479362 3.700467
C 3.112833 0.587885 4.775809
C 2.838560 0.127869 6.029782
C 1.617096 0.793841 6.566646
C 0.360075 0.174381 6.418136
C -0.825570 0.895700 6.501139
C -0.760175 2.260362 6.686032
O -1.861246 3.055577 6.580553
C 0.462058 2.891255 6.871838
O 0.505907 4.243048 7.029905
C 1.643379 2.172305 6.833147
C 3.810029 3.389504 1.515045
H 7.394856 5.003594 -1.445850
H 6.149674 4.737001 -2.718461
H 6.552286 6.371761 -2.169452
H 2.626776 3.453727 -1.252952
H 4.233178 6.165774 1.087340
H 3.019993 6.309564 -0.168248
H 1.237680 5.639701 1.397056
H 1.219755 9.838071 2.680886
H 2.984463 11.221357 1.783179
H 5.483215 10.593692 1.468533
H 7.161956 10.100340 -0.251917
H 7.494173 9.229224 -2.324881
H 4.823815 8.425463 -3.580732
H 2.359225 9.124565 -1.138970
H 3.375183 5.302095 3.554542
H 0.646290 4.548844 3.581853
H 1.760017 3.117309 2.136487
H 0.283320 -0.845760 6.078346
H -1.775570 0.393547 6.305404
H -2.628790 2.469600 6.460791
H -0.433334 4.520064 6.946739
H 2.578394 2.726035 6.838610
H 4.772287 3.660748 1.972057
H 3.910076 2.343606 1.209541
C 7.244021 -4.355174 14.820585
O 6.293422 -4.970404 13.943534
C 6.609307 -4.878698 12.622351
O 7.608428 -4.325864 12.160889
C 5.578576 -5.650592 11.762436
O 4.358956 -5.958647 12.433938
C 6.266438 -6.958498 11.368466
C 5.515506 -7.733409 10.294020
O 6.372637 -8.783337 9.768058
C 6.670479 -9.832975 10.565143
O 6.223681 -10.075514 11.671794
C 7.687552 -10.609003 9.829185
C 8.364230 -11.612276 10.406118
C 9.413007 -12.277560 9.633866
C 10.756597 -12.007246 9.928853
C 11.770201 -12.560597 9.141078
C 11.431699 -13.382651 8.074411
O 12.427626 -13.908683 7.308046
C 10.098188 -13.668232 7.790466
O 9.833658 -14.474607 6.720721
C 9.079436 -13.117397 8.562243
C 5.223420 -6.857869 9.072250
O 4.455341 -7.633107 8.136375
C 4.522282 -5.540302 9.407977
O 4.658867 -4.633028 8.277128
C 3.805327 -4.705908 7.225839
O 2.864360 -5.459572 7.126703
C 4.098875 -3.523179 6.290930
C 5.321528 -3.731312 5.701829
C 6.476459 -2.981307 6.303500
C 6.973513 -1.849088 5.667027
C 8.150710 -1.251909 6.116558
C 8.813347 -1.756674 7.224611
O 9.938736 -1.132442 7.686580
C 8.345446 -2.883744 7.867201
O 9.064577 -3.354816 8.930134
C 7.204657 -3.521939 7.390510
C 5.225085 -4.799481 10.543306
H 6.765621 -4.213843 15.798624
H 7.566415 -3.376347 14.451698
H 8.108063 -5.016978 14.947341
H 4.592273 -6.176515 13.359638
H 6.379217 -7.592793 12.263800
H 7.291225 -6.767056 11.019749
H 4.589175 -8.188216 10.675978
H 7.894297 -10.292619 8.812253
H 8.193827 -11.926688 11.434077
H 11.027392 -11.355340 10.755220
H 12.812074 -12.353005 9.356527
H 11.963849 -14.440020 6.630275
H 8.882297 -14.699385 6.734287
H 8.038218 -13.323843 8.338331
H 6.167233 -6.641599 8.546905
H 4.933477 -8.476126 8.011652
H 3.452939 -5.689271 9.628501
H 6.517154 -1.500561 4.748297
H 8.568497 -0.412183 5.568034
H 10.280642 -1.728157 8.382715
H 8.513818 -3.967578 9.450595
H 6.917028 -4.469699 7.825214
H 4.590974 -3.957789 10.845714
H 6.135584 -4.328603 10.150087
C 13.170431 -1.211997 0.604555
O 11.757429 -1.416223 0.645781
C 11.295942 -1.764161 1.872009
O 12.001807 -2.124075 2.809411
C 9.768459 -1.608086 1.975523
O 9.450464 -1.485978 3.364195
C 9.300277 -0.298857 1.326918
C 8.763074 -0.527378 -0.099311
O 8.370072 0.736782 -0.662289
C 9.402900 1.583355 -0.878207
O 10.515799 1.280806 -1.265059
C 8.995195 2.889980 -0.336378
C 9.939126 3.731414 0.103087
C 9.646591 4.978839 0.819068
C 10.547972 6.047667 0.698891
C 10.333770 7.242373 1.394375
C 9.221804 7.361076 2.214568
O 9.051966 8.500147 2.944127
C 8.313311 6.315220 2.327785
O 7.179133 6.453993 3.080207
C 8.530257 5.116270 1.660452
C 7.534264 -1.476716 -0.078907
O 6.342609 -0.706606 -0.048355
C 7.557362 -2.422436 1.149621
O 6.722660 -3.607491 0.976141
C 5.606992 -3.627402 1.779412
O 5.257224 -2.716942 2.514928
C 5.079470 -5.011654 2.014492
C 4.579240 -5.793290 0.992660
C 5.077556 -7.204002 1.106363
C 6.266309 -7.550461 0.437797
C 6.806574 -8.839586 0.530048
C 6.162175 -9.782841 1.313704
O 6.693376 -11.032427 1.440224
C 4.981090 -9.471334 1.964781
O 4.357210 -10.455898 2.681744
C 4.445690 -8.188049 1.869790
C 9.013412 -2.818377 1.404316
H 13.482641 -0.519697 1.390620
H 13.694718 -2.166621 0.702570
H 13.424304 -0.761019 -0.358689
H 10.024703 -2.109968 3.856138
H 8.512467 0.173510 1.929897
H 10.111527 0.440085 1.336406
H 9.536983 -0.979797 -0.729625
H 7.932520 3.048111 -0.200802
H 10.990837 3.488548 -0.027388
H 11.433268 5.953832 0.074339
H 11.051873 8.056717 1.316095
H 8.821971 8.195349 3.841139
H 6.936423 7.394297 3.025987
H 7.826342 4.298559 1.809693
H 7.511648 -2.056728 -1.005565
H 6.378297 -0.075951 -0.795442
H 7.204721 -1.856381 2.022203
H 6.793237 -6.813553 -0.164919
H 7.727472 -9.088569 0.006834
H 6.088173 -11.481812 2.064615
H 3.460607 -10.134854 2.899819
H 3.511553 -7.968673 2.362265
H 9.085558 -3.685557 2.063282
H 9.462369 -3.135756 0.462245
C -6.706781 -7.186388 -1.544932
O -5.278324 -7.259870 -1.580795
C -4.752705 -8.227585 -0.794859
O -5.415722 -9.061857 -0.182114
C -3.217308 -8.137869 -0.640845
O -2.981460 -7.811427 0.752033
C -2.598754 -9.539516 -0.894377
C -2.108446 -9.684812 -2.337300
O -3.259035 -9.441324 -3.167271
C -3.391549 -10.139497 -4.322555
O -2.603438 -10.947046 -4.787865
C -4.711111 -9.842677 -4.932283
C -5.341797 -8.680244 -4.715442
C -6.678536 -8.278246 -5.179164
C -7.621016 -9.171507 -5.716797
C -8.909376 -8.731359 -6.059412
C -9.249942 -7.400595 -5.869456
O -10.506757 -6.968645 -6.183958
C -8.323502 -6.499353 -5.366023
O -8.701016 -5.190502 -5.238899
C -7.051910 -6.933678 -5.005664
C -0.987391 -8.656353 -2.626468
O 0.290473 -9.294139 -2.509010
C -1.058759 -7.417894 -1.682991
O -0.207491 -6.373791 -2.212992
C 0.160438 -5.306980 -1.430642
O -0.498350 -4.811584 -0.529935
C 1.619952 -4.976305 -1.739740
C 1.616849 -4.479108 -3.022378
C 2.444219 -5.162310 -4.059578
C 2.548354 -6.568828 -4.094984
C 3.200864 -7.238092 -5.138966
C 3.744177 -6.496978 -6.179113
O 4.433483 -7.088183 -7.195088
C 3.615681 -5.115424 -6.178500
O 4.167533 -4.363887 -7.176369
C 2.987780 -4.450662 -5.130790
C -2.520905 -7.038066 -1.469835
H -7.068872 -7.111393 -0.516983
H -7.011419 -6.281249 -2.073554
H -7.144135 -8.057179 -2.040067
H -3.512614 -8.448942 1.274116
H -1.771434 -9.723973 -0.198525
H -3.335884 -10.325663 -0.689029
H -1.743587 -10.710737 -2.482915
H -5.114421 -10.627639 -5.559557
H -4.834351 -7.915053 -4.124396
H -7.382608 -10.220278 -5.861338
H -9.636966 -9.428508 -6.466078
H -10.470444 -6.007376 -5.991539
H -7.883800 -4.637704 -5.239486
H -6.356895 -6.225949 -4.565604
H -1.037880 -8.326852 -3.662741
H 0.327542 -9.737043 -1.644479
H -0.628778 -7.698887 -0.724884
H 2.080862 -7.185735 -3.328013
H 3.258944 -8.320711 -5.124075
H 4.590366 -8.018275 -6.951722
H 4.938886 -4.901066 -7.458840
H 2.944083 -3.372767 -5.161957
H -2.573374 -6.078548 -0.956639
H -3.006655 -6.890409 -2.438564
C -4.941107 -1.909729 -12.583137
O -5.362655 -2.132561 -11.239145
C -4.380853 -2.603897 -10.415920
O -3.228992 -2.819845 -10.765347
C -4.941046 -2.782016 -8.985664
O -5.769502 -1.689500 -8.569293
C -5.855785 -4.018707 -8.971635
C -5.658935 -4.923075 -7.755194
O -4.580495 -5.839795 -8.022414
C -4.927303 -6.959091 -8.715550
O -6.032787 -7.261383 -9.128416
C -3.709137 -7.750304 -8.917853
C -3.771262 -9.068595 -9.158610
C -2.541995 -9.856230 -9.251744
C -1.661688 -9.720649 -10.333569
C -0.458134 -10.434500 -10.355185
C -0.138870 -11.260342 -9.288847
O 1.047521 -11.929123 -9.299924
C -1.009360 -11.399911 -8.208365
O -0.627051 -12.196865 -7.164518
C -2.219990 -10.719358 -8.193612
C -5.376396 -4.153078 -6.444644
O -6.631394 -3.609185 -5.963538
C -4.330559 -3.017903 -6.545816
O -3.278033 -3.240242 -5.563808
C -2.574043 -2.129505 -5.215191
O -2.666232 -1.040911 -5.776202
C -1.729232 -2.266986 -3.970311
C -2.220671 -1.437875 -2.983127
C -1.395849 -0.949682 -1.842215
C -1.654017 -1.246375 -0.493477
C -1.005461 -0.546666 0.536958
C -0.016709 0.368114 0.212967
O 0.702547 1.060004 1.141713
C 0.302017 0.598954 -1.116048
O 1.358229 1.406688 -1.431565
C -0.441455 0.022170 -2.124289
C -3.786779 -2.889848 -7.976007
H -4.617773 -2.846814 -13.047634
H -5.799413 -1.527276 -13.146100
H -4.140037 -1.162749 -12.619078
H -5.537841 -0.890788 -9.093349
H -6.903977 -3.688262 -8.989293
H -5.700978 -4.605189 -9.885859
H -6.589243 -5.489972 -7.607414
H -2.772160 -7.217619 -8.838044
H -4.718322 -9.598066 -9.213830
H -1.900464 -9.051964 -11.159939
H 0.225587 -10.332941 -11.193601
H 1.028260 -12.473535 -8.485893
H -1.232260 -12.021238 -6.414367
H -2.908391 -10.839135 -7.364720
H -5.034538 -4.862758 -5.686156
H -6.840948 -2.839895 -6.540575
H -4.827720 -2.076239 -6.270326
H -2.365588 -2.011296 -0.221974
H -1.241625 -0.765423 1.572145
H 0.389495 0.848515 2.045647
H 1.852758 1.466947 -0.588315
H -0.287793 0.337843 -3.144395
H -3.112173 -3.724399 -8.210063
H -3.163777 -1.991939 -8.032088
C -5.691609 5.493667 -10.746027
O -4.946777 4.383612 -10.240417
C -5.606819 3.196407 -10.309670
O -6.698360 3.022837 -10.844814
C -4.833903 2.059191 -9.618818
O -5.572649 0.820266 -9.720195
C -3.490797 1.821986 -10.322491
C -2.655697 0.767258 -9.583907
O -1.461679 0.540491 -10.360036
C -0.855779 -0.640665 -10.072566
O -0.969018 -1.251816 -9.021441
C -0.126295 -1.129391 -11.250847
C 0.515686 -2.306028 -11.141281
C 1.122687 -3.093613 -12.228720
C 0.982166 -2.776251 -13.588098
C 1.481657 -3.630948 -14.580534
C 2.124333 -4.800642 -14.209303
O 2.602794 -5.644586 -15.170277
C 2.299622 -5.115480 -12.866720
O 2.946164 -6.279660 -12.560121
C 1.800372 -4.274371 -11.877572
C -2.413096 1.189458 -8.113444
O -1.704747 2.440122 -8.071872
C -3.791172 1.329011 -7.422265
O -3.630335 1.665391 -6.023392
C -4.646396 1.205638 -5.236432
O -5.709640 0.753857 -5.638628
C -4.231685 1.239831 -3.797183
C -4.270716 2.466010 -3.179783
C -3.210858 2.657697 -2.139858
C -1.934538 3.037640 -2.605431
C -0.951727 3.504667 -1.737094
C -1.220621 3.523139 -0.377430
O -0.271231 3.899856 0.528222
C -2.461656 3.110107 0.098566
O -2.704263 3.128642 1.442341
C -3.462555 2.697392 -0.769259
C -4.663764 2.369590 -8.130656
H -5.783954 5.422209 -11.833671
H -6.681655 5.545354 -10.281646
H -5.146666 6.407137 -10.498437
H -6.522010 1.078162 -9.773507
H -2.915371 2.752183 -10.406312
H -3.658289 1.476341 -11.352522
H -3.224853 -0.169964 -9.590433
H -0.231366 -0.582995 -12.175848
H 0.542341 -2.787828 -10.163541
H 0.480055 -1.868074 -13.908409
H 1.371419 -3.386452 -15.634191
H 2.989458 -6.392697 -14.668498
H 3.190966 -6.239889 -11.620181
H 1.913352 -4.543287 -10.829079
H -1.804992 0.461371 -7.570786
H -0.754382 2.217825 -8.022799
H -4.276134 0.347280 -7.489429
H -1.704356 2.993712 -3.666884
H 0.016936 3.813115 -2.121989
H 0.601200 3.777779 0.087888
H -1.858961 3.433458 1.831543
H -4.435121 2.470703 -0.365150
H -4.219148 3.354508 -7.991678
H -5.646805 2.419577 -7.644214
C -13.152040 -0.856733 1.797246
O -12.794344 0.522437 1.673754
C -11.456318 0.734730 1.500800
O -10.598160 -0.138293 1.523472
C -11.179623 2.241154 1.308620
O -12.365637 2.992025 0.991366
C -10.619152 2.809688 2.620703
C -10.337841 4.315035 2.490038
O -9.444016 4.735832 3.536543
C -10.056137 5.173279 4.665092
O -11.247050 5.076685 4.920377
C -9.049935 5.798755 5.543658
C -9.468735 6.487936 6.613741
C -8.556792 7.109497 7.574536
C -7.774406 6.313123 8.422225
C -6.951549 6.895542 9.389514
C -6.905303 8.276378 9.490186
O -6.064672 8.847951 10.401323
C -7.694324 9.071261 8.665043
O -7.697477 10.424457 8.833272
C -8.513840 8.502329 7.701088
C -9.715919 4.678056 1.121981
O -10.747964 5.210151 0.267020
C -9.083883 3.447587 0.439089
O -8.469592 3.796418 -0.825765
C -7.137106 4.068428 -0.939108
O -6.313597 3.928965 -0.049367
C -6.872075 4.541023 -2.350139
C -7.842058 5.345737 -2.902294
C -8.453324 4.640183 -4.075936
C -8.127453 4.960310 -5.400472
C -8.742683 4.296241 -6.467209
C -9.679586 3.301404 -6.216213
O -10.314254 2.696937 -7.262342
C -9.975484 2.941911 -4.909489
O -10.870316 1.927686 -4.691807
C -9.396622 3.618579 -3.844382
C -10.222816 2.461131 0.122520
H -14.236849 -0.934792 1.721601
H -12.839847 -1.234058 2.775155
H -12.706540 -1.450504 0.992635
H -13.093202 2.605683 1.525278
H -11.331471 2.651808 3.441142
H -9.707985 2.275308 2.924703
H -11.286287 4.863310 2.579306
H -8.005590 5.678620 5.285493
H -10.530585 6.628300 6.812277
H -7.804019 5.227843 8.336871
H -6.342623 6.275584 10.038725
H -5.924240 9.765427 10.096492
H -8.065561 10.565898 9.724527
H -9.122327 9.140179 7.066109
H -8.987884 5.478436 1.226427
H -11.558586 4.672607 0.392784
H -8.334096 2.984246 1.089534
H -7.410253 5.744260 -5.634827
H -8.509060 4.570601 -7.491209
H -11.080052 2.243573 -6.853986
H -10.618383 1.504321 -3.857609
H -9.691159 3.362587 -2.831319
H -10.778943 2.828022 -0.751735
H -9.792598 1.532374 -0.238478
C -18.732082 7.169076 -4.241757
O -17.535391 6.492393 -3.836153
C -16.397617 6.889608 -4.471603
O -16.345497 7.719904 -5.370060
C -15.151984 6.154077 -3.938387
O -13.992982 6.713034 -4.559914
C -15.211350 4.670449 -4.297190
C -13.980293 3.932511 -3.758274
O -14.140441 2.504515 -3.930875
C -13.863799 1.985368 -5.149119
O -13.605514 2.606363 -6.169658
C -13.865988 0.506974 -5.097618
C -14.176108 -0.215885 -4.008697
C -14.072544 -1.680722 -3.919563
C -14.210392 -2.526764 -5.031762
C -14.080999 -3.913719 -4.897919
C -13.831689 -4.456519 -3.644786
O -13.681766 -5.799389 -3.461464
C -13.733784 -3.631891 -2.531022
O -13.516634 -4.169918 -1.292107
C -13.848450 -2.252074 -2.655741
C -13.824232 4.129756 -2.239527
O -14.918397 3.481812 -1.568677
C -13.797881 5.605866 -1.813423
O -12.494449 6.148168 -2.133326
C -12.194640 7.322256 -1.516022
O -13.008671 8.002029 -0.900101
C -10.727445 7.642681 -1.530297
C -10.356601 8.406886 -0.535253
C -10.170455 9.185887 0.646355
C -9.759049 10.516392 0.561014
C -9.652736 11.292238 1.724851
C -9.956777 10.720099 2.955854
O -9.911343 11.434725 4.124047
C -10.363885 9.396228 3.031266
O -10.709128 8.853154 4.239948
C -10.470559 8.619906 1.889450
C -14.991726 6.371248 -2.431590
H -19.393294 7.229455 -3.373823
H -19.229272 6.584598 -5.022251
H -18.546699 8.192142 -4.595014
H -14.259223 7.137797 -5.404111
H -16.123107 4.205494 -3.906647
H -15.263498 4.547413 -5.389195
H -13.073060 4.266474 -4.269557
H -13.537018 0.052688 -6.027175
H -14.476061 0.284729 -3.088782
H -14.416381 -2.119103 -6.017819
H -14.188018 -4.551436 -5.773914
H -13.440476 -6.179290 -4.326447
H -13.472463 -5.134388 -1.460336
H -13.748306 -1.634297 -1.765305
H -12.902654 3.628454 -1.921806
H -14.993511 2.602887 -1.982441
H -13.903587 5.636459 -0.719568
H -9.524516 10.955120 -0.409526
H -9.350143 12.332019 1.655373
H -9.668892 12.355341 3.905706
H -10.600392 9.589485 4.875064
H -10.820610 7.591743 1.973585
H -15.902094 6.044042 -1.915862
H -14.889196 7.442173 -2.236165
