384
Molecule ID: homopoly_87693
C 2.597032 9.382368 -4.376919
N 3.852879 9.208380 -3.636540
C 4.767088 10.321766 -3.895042
C 4.480979 7.905509 -3.920846
C 4.483227 7.030317 -2.668696
C 3.084965 6.677304 -2.159797
O 2.466439 5.800114 -3.104992
C 1.116301 5.907452 -3.198319
O 0.384062 6.682260 -2.604591
C 0.566752 5.003264 -4.171350
C 0.108485 4.101625 -4.984136
H 2.770463 9.572382 -5.443848
H 2.045932 10.227392 -3.950906
H 1.955873 8.500367 -4.290003
H 5.685174 10.197778 -3.307654
H 5.036095 10.412125 -4.952936
H 4.318542 11.266078 -3.566557
H 3.991041 7.374915 -4.751425
H 5.523934 8.033137 -4.241336
H 5.020876 6.107214 -2.913887
H 5.043505 7.528008 -1.869617
H 2.494784 7.583737 -1.978314
H 3.177286 6.133929 -1.209946
H -0.644125 4.402576 -5.704479
C -6.779100 7.095058 -3.267174
N -6.107165 6.539835 -4.441223
C -6.723382 7.065034 -5.660013
C -6.106974 5.069404 -4.376853
C -5.238648 4.374435 -5.423422
C -3.749547 4.757431 -5.361392
O -2.932255 3.727622 -4.757555
C -2.731324 2.656484 -5.563537
O -3.253528 2.487597 -6.659817
C -1.918942 1.606843 -4.881818
C -2.682111 0.532877 -4.576916
H -6.306040 6.750591 -2.344195
H -7.838119 6.807923 -3.234142
H -6.718229 8.187673 -3.260252
H -7.753819 6.715883 -5.780383
H -6.736886 8.160300 -5.642423
H -6.149904 6.786586 -6.542081
H -7.130753 4.691913 -4.471914
H -5.750744 4.754760 -3.388789
H -5.618979 4.614713 -6.423928
H -5.367473 3.297600 -5.289847
H -3.581018 5.686050 -4.797317
H -3.382970 4.955960 -6.384157
H -3.766251 0.593033 -4.731352
C -0.992933 -8.668275 -0.500984
N -1.276488 -7.234124 -0.472654
C -1.692773 -6.827445 0.870379
C -0.122956 -6.446790 -0.922149
C 0.000239 -6.439856 -2.453155
C -1.280072 -5.973971 -3.157660
O -1.586344 -4.670153 -2.657012
C -2.458825 -3.924200 -3.370519
O -2.929834 -4.161439 -4.472626
C -2.769743 -2.726216 -2.533073
C -3.194570 -3.093416 -1.300769
H -1.903761 -9.238069 -0.277593
H -0.667246 -8.995680 -1.495763
H -0.226384 -8.950706 0.226338
H -1.962431 -5.765636 0.882504
H -2.590903 -7.375480 1.175384
H -0.912830 -6.996902 1.618647
H 0.803370 -6.814397 -0.475068
H -0.228879 -5.403361 -0.596935
H 0.792202 -5.734692 -2.716288
H 0.294934 -7.427446 -2.832794
H -1.125550 -5.961133 -4.244749
H -2.114084 -6.649617 -2.932993
H -3.309928 -4.156572 -1.081878
C -2.900330 -2.142112 9.767838
N -3.944646 -1.898327 8.772997
C -4.610288 -0.623751 9.049774
C -3.388520 -1.953816 7.409722
C -4.510532 -2.090499 6.371729
C -4.035946 -2.716379 5.065226
O -3.291009 -1.780485 4.261812
C -2.818258 -2.356987 3.129601
O -2.734028 -3.569701 2.927654
C -2.525562 -1.367836 2.048128
C -2.292603 -0.056011 2.183898
H -2.097719 -1.398434 9.713199
H -3.311405 -2.119365 10.784283
H -2.456391 -3.133757 9.626933
H -3.907689 0.215881 9.027542
H -5.073933 -0.640503 10.041807
H -5.409035 -0.417844 8.336883
H -2.736645 -2.830498 7.327649
H -2.772794 -1.077211 7.188275
H -5.299294 -2.739362 6.779363
H -4.950894 -1.105950 6.177541
H -4.920734 -3.015263 4.490462
H -3.432970 -3.608902 5.278077
H -2.178690 0.511427 1.263638
C 0.630296 -1.184568 7.305030
N 0.675068 0.269480 7.433131
C 2.063134 0.727206 7.326629
C 0.080126 0.730025 8.693257
C -0.465584 2.167879 8.644079
C -1.765723 2.314246 7.839035
O -1.611659 1.913737 6.477246
C -0.989651 2.851716 5.706112
O -0.858325 4.031970 5.990073
C -0.334779 2.150969 4.554931
C 0.856385 2.619344 4.110405
H -0.360468 -1.568965 7.554343
H 0.832400 -1.456673 6.263355
H 1.363497 -1.679196 7.949721
H 2.449706 0.542433 6.320649
H 2.151582 1.794722 7.518241
H 2.714967 0.219542 8.043372
H 0.803053 0.648369 9.510840
H -0.760331 0.092155 8.972065
H -0.669164 2.492765 9.671727
H 0.292828 2.857112 8.247950
H -2.534702 1.671289 8.262592
H -2.154216 3.341350 7.912235
H 1.418871 2.017527 3.406794
C -2.520221 8.303662 -3.338774
N -3.361461 7.907635 -2.207429
C -3.786354 9.099717 -1.471610
C -2.616761 6.981936 -1.324750
C -3.585263 6.114470 -0.522605
C -3.001135 5.676391 0.825601
O -1.734313 5.012202 0.719731
C -1.132340 4.954263 1.935957
O -1.620023 5.413960 2.959080
C 0.267246 4.418611 1.914794
C 0.899309 3.487269 1.160340
H -1.587548 8.775635 -3.014969
H -2.272662 7.435547 -3.958226
H -3.054432 9.009718 -3.985060
H -4.430789 8.839917 -0.627523
H -4.377071 9.756014 -2.117517
H -2.934697 9.670190 -1.085765
H -1.923674 7.533849 -0.678218
H -2.015399 6.293494 -1.928698
H -4.526393 6.635414 -0.308025
H -3.846562 5.247945 -1.131449
H -3.720955 5.000780 1.313780
H -2.904754 6.588426 1.432932
H 1.961489 3.411162 1.411043
C 4.880701 -0.237582 -6.896404
N 4.964862 -1.616622 -6.374049
C 4.866033 -2.537423 -7.508593
C 3.837448 -1.871871 -5.465364
C 3.859094 -1.117272 -4.135729
C 2.562944 -1.393960 -3.382303
O 2.597674 -0.798558 -2.079083
C 1.426056 -0.304598 -1.606871
O 0.400277 -0.107603 -2.240289
C 1.560325 -0.046321 -0.152393
C 2.188356 -0.921570 0.675507
H 5.621446 -0.079384 -7.692798
H 5.097062 0.496930 -6.114488
H 3.885195 -0.024930 -7.313847
H 4.020687 -2.281771 -8.157418
H 4.745399 -3.577171 -7.167975
H 5.789888 -2.505383 -8.100457
H 3.865328 -2.935462 -5.203183
H 2.889221 -1.715026 -5.999005
H 4.716866 -1.446845 -3.535190
H 4.002669 -0.044783 -4.273658
H 1.693788 -1.077461 -3.978921
H 2.473838 -2.476598 -3.218008
H 2.328736 -0.635866 1.727256
C 3.217469 -8.909285 -4.353090
N 3.376373 -7.934477 -5.423993
C 2.118374 -7.707687 -6.131432
C 4.077141 -6.697386 -5.058701
C 3.452223 -5.776537 -4.004103
C 3.731805 -6.192138 -2.568509
O 3.174011 -5.235989 -1.638527
C 3.739740 -5.345228 -0.411288
O 4.728197 -6.018305 -0.158254
C 2.922833 -4.670450 0.645772
C 2.898332 -5.392138 1.785940
H 4.147032 -9.031807 -3.792196
H 2.980436 -9.885898 -4.774348
H 2.416193 -8.638303 -3.659529
H 1.352217 -7.258911 -5.492698
H 1.722825 -8.655087 -6.513290
H 2.276037 -7.063453 -6.998636
H 5.098073 -6.954513 -4.754046
H 4.198693 -6.113567 -5.979071
H 3.874682 -4.773837 -4.130162
H 2.380749 -5.642553 -4.184490
H 3.275439 -7.156918 -2.335966
H 4.816381 -6.283089 -2.436720
H 3.448771 -6.340407 1.796039
C 6.759424 2.142454 -0.481819
N 5.339565 2.467602 -0.286233
C 5.204708 3.273067 0.932551
C 4.752846 3.165414 -1.455858
C 4.564528 2.202099 -2.639937
C 3.957268 2.876792 -3.863849
O 2.521994 2.888677 -3.795889
C 1.856347 2.267742 -4.807602
O 2.338906 1.516401 -5.637073
C 0.415058 2.688169 -4.831582
C -0.456240 1.653596 -4.811677
H 7.126045 1.544470 0.367495
H 6.925199 1.522573 -1.371815
H 7.392072 3.039986 -0.567310
H 5.597122 2.727138 1.801622
H 4.151204 3.473346 1.145400
H 5.727707 4.241492 0.861693
H 5.378935 4.022759 -1.739190
H 3.766332 3.560813 -1.180589
H 3.932484 1.376168 -2.304277
H 5.530353 1.783762 -2.937787
H 4.321352 2.372863 -4.768092
H 4.294791 3.919277 -3.937843
H -0.011283 0.666091 -4.690010
C 1.504186 -3.974798 -9.937258
N 0.630065 -3.467324 -8.875145
C -0.575589 -2.887088 -9.481443
C 0.329750 -4.531734 -7.910493
C -0.479089 -4.080871 -6.691248
C 0.215843 -2.980508 -5.893892
O -0.634287 -2.443296 -4.853895
C -1.548916 -1.546908 -5.319017
O -1.710682 -1.240770 -6.494847
C -2.280764 -0.837896 -4.223940
C -2.741542 -1.365551 -3.068766
H 1.040721 -4.792128 -10.504296
H 1.766390 -3.178457 -10.644171
H 2.450794 -4.331042 -9.516577
H -0.292114 -2.088484 -10.182299
H -1.216311 -2.415699 -8.734275
H -1.163669 -3.630032 -10.028516
H 1.275342 -4.943236 -7.540591
H -0.199787 -5.358358 -8.392568
H -0.625071 -4.940482 -6.032730
H -1.482624 -3.750358 -6.985894
H 0.561605 -2.156804 -6.526098
H 1.100403 -3.382811 -5.392674
H -3.271044 -0.686511 -2.407541
C -11.378981 -2.852688 -1.347323
N -9.971815 -2.540706 -1.602651
C -9.857511 -1.853154 -2.899979
C -9.422809 -1.716442 -0.506869
C -7.894792 -1.546075 -0.562987
C -7.153079 -2.853871 -0.337106
O -5.756267 -2.710188 -0.640029
C -4.954893 -2.210822 0.335706
O -5.328646 -1.791980 1.420752
C -3.517460 -2.305204 -0.113280
C -2.492948 -1.917144 0.680834
H -11.686375 -3.678364 -1.996251
H -12.040282 -1.995100 -1.523607
H -11.537618 -3.193246 -0.320453
H -10.406669 -2.399335 -3.673332
H -10.247953 -0.832178 -2.844105
H -8.813008 -1.808272 -3.226010
H -9.911362 -0.733572 -0.465854
H -9.647622 -2.216015 0.453001
H -7.592214 -1.090966 -1.509753
H -7.600849 -0.826740 0.205044
H -7.540340 -3.636216 -0.990015
H -7.283401 -3.212003 0.688700
H -1.476756 -2.095711 0.332817
C -8.560538 -1.370831 5.476171
N -8.467330 -0.230955 4.562352
C -9.055938 -0.575958 3.268006
C -7.054788 0.189495 4.439202
C -6.870417 1.425283 3.550691
C -5.523462 2.103776 3.760778
O -4.445179 1.202417 3.488403
C -3.229602 1.807638 3.582056
O -3.045672 2.998980 3.768644
C -2.131483 0.824852 3.339961
C -0.887550 0.965031 3.876268
H -8.140602 -2.284309 5.037893
H -8.034223 -1.158000 6.411123
H -9.603880 -1.559476 5.737962
H -10.073529 -0.954368 3.404939
H -9.147615 0.299693 2.619825
H -8.473861 -1.340801 2.739700
H -6.687420 0.449829 5.440997
H -6.428446 -0.630683 4.066869
H -7.658604 2.159057 3.757542
H -6.967768 1.128222 2.500810
H -5.459180 2.971251 3.088682
H -5.449540 2.455015 4.796719
H -0.128436 0.252117 3.562317
C 7.670709 6.311347 4.028021
N 6.957584 6.059893 5.283101
C 7.295173 4.726498 5.796438
C 5.504923 6.261370 5.107101
C 4.696539 5.960309 6.378265
C 3.228466 6.377713 6.247228
O 2.579147 5.760716 5.116032
C 2.105381 4.504403 5.326360
O 2.337404 3.821489 6.312240
C 1.317650 4.009530 4.151877
C 1.049131 4.841225 3.108550
H 7.396710 5.596800 3.237528
H 8.753973 6.248111 4.201068
H 7.463401 7.325737 3.672212
H 6.821659 3.918390 5.216794
H 7.002892 4.634704 6.848421
H 8.376019 4.551592 5.769778
H 5.343903 7.314334 4.853657
H 5.122145 5.664619 4.269379
H 4.739940 4.884402 6.572205
H 5.137357 6.493865 7.232656
H 2.682859 6.142603 7.172360
H 3.152133 7.454099 6.107567
H 1.272982 5.898575 3.140987
C -6.874099 1.629126 -2.373558
N -6.457912 1.840177 -0.978048
C -7.503538 2.608147 -0.287511
C -5.177634 2.559518 -0.888411
C -3.957798 1.677591 -1.205658
C -2.689218 2.527884 -1.248086
O -1.538339 1.860061 -0.722764
C -0.436862 2.655493 -0.841804
O -0.322534 3.639332 -1.558911
C 0.528568 2.387419 0.242527
C 1.276453 1.268849 0.437188
H -6.985918 2.570582 -2.918678
H -7.836967 1.106914 -2.407405
H -6.159555 0.995472 -2.908038
H -7.253865 2.744831 0.768299
H -8.461658 2.066555 -0.315115
H -7.652505 3.598147 -0.739283
H -5.193357 3.441206 -1.535670
H -5.044072 2.925042 0.140394
H -3.878288 0.874040 -0.471349
H -4.096346 1.222794 -2.183971
H -2.857668 3.399003 -0.621510
H -2.516333 2.865355 -2.277593
H 1.948764 1.347297 1.301379
C 7.419891 -4.905441 -4.163961
N 7.817099 -3.839856 -3.243070
C 8.018588 -2.597562 -3.980309
C 6.824927 -3.706482 -2.160991
C 7.236055 -2.674194 -1.101592
C 6.581831 -2.933568 0.252953
O 5.149794 -3.035425 0.155882
C 4.449906 -1.908088 0.404136
O 4.939884 -0.793383 0.553835
C 2.952773 -2.147205 0.431374
C 2.329720 -3.345451 0.485051
H 6.485583 -4.663956 -4.691423
H 8.207430 -5.078005 -4.908958
H 7.277342 -5.857796 -3.635268
H 7.100907 -2.245166 -4.453217
H 8.761582 -2.727434 -4.780744
H 8.405146 -1.797176 -3.349017
H 5.854234 -3.430773 -2.574156
H 6.715472 -4.676910 -1.670492
H 8.319369 -2.686111 -0.957215
H 6.956142 -1.668742 -1.457687
H 6.937034 -3.888051 0.647068
H 6.879667 -2.162761 0.974298
H 1.239666 -3.348843 0.551440
C 1.290691 -8.382681 10.134627
N 1.131145 -7.035007 9.597965
C -0.282029 -6.689603 9.465524
C 1.883400 -6.818408 8.352092
C 1.493111 -7.682843 7.133101
C 2.439563 -7.444195 5.951290
O 1.961024 -6.372801 5.120219
C 2.902765 -5.928900 4.243460
O 4.101180 -6.177083 4.301056
C 2.301424 -5.164854 3.097033
C 1.271554 -4.386934 3.284145
H 0.877510 -8.436144 11.148318
H 2.349868 -8.651734 10.219289
H 0.788422 -9.150859 9.532370
H -0.761687 -6.708295 10.450605
H -0.399293 -5.672363 9.080857
H -0.829813 -7.375932 8.809351
H 1.810048 -5.762553 8.071527
H 2.944831 -6.985298 8.574635
H 0.457934 -7.482173 6.834988
H 1.572375 -8.737821 7.410427
H 2.458251 -8.353983 5.336164
H 3.452742 -7.249783 6.320347
H 0.422496 -3.761413 3.436300
