272
Molecule ID: homopoly_3083653
C -1.153652 1.346955 1.042974
C -1.144712 0.029425 0.931280
C -0.168006 -0.717058 1.691702
O -0.090419 -1.976682 1.643443
O 0.741588 -0.086356 2.519902
O 6.788150 2.627526 3.677553
C 6.323218 2.196608 2.599780
O 5.273137 1.283847 2.624941
C 6.856593 2.640178 1.348904
C 7.852602 3.511498 1.150161
Pb -2.210840 1.347900 0.519960
H -0.484138 1.896674 1.660314
H -1.880553 1.894625 0.476327
H -1.823881 -0.499280 0.307653
H 8.347848 3.964638 1.957984
H -3.008971 1.663476 -0.976497
H -2.808764 -0.352814 1.924541
C -1.153652 1.346955 1.042974
C -1.144712 0.029425 0.931280
C -0.168006 -0.717058 1.691702
O -0.090419 -1.976682 1.643443
O 0.741588 -0.086356 2.519902
O 8.595734 0.845794 -0.038896
C 7.710085 0.854204 -0.971569
O 7.304156 -0.422548 -1.355388
C 7.169885 2.049110 -1.595688
C 6.286468 1.925853 -2.531359
Pb -2.210840 1.347900 0.519960
H -0.484138 1.896674 1.660314
H -1.880553 1.894625 0.476327
H -1.823881 -0.499280 0.307653
H 6.009716 0.826501 -2.785506
H -3.008971 1.663476 -0.976497
H -2.808764 -0.352814 1.924541
C -1.153652 1.346955 1.042974
C -1.144712 0.029425 0.931280
C -0.168006 -0.717058 1.691702
O -0.090419 -1.976682 1.643443
O 0.741588 -0.086356 2.519902
O 5.755605 4.470793 -5.948421
C 4.624733 4.021558 -6.084755
O 3.828964 4.640008 -7.120355
C 3.972185 2.943490 -5.313865
C 2.815066 2.478408 -5.577770
Pb -2.210840 1.347900 0.519960
H -0.484138 1.896674 1.660314
H -1.880553 1.894625 0.476327
H -1.823881 -0.499280 0.307653
H 2.773906 3.389758 -6.644765
H -3.008971 1.663476 -0.976497
H -2.808764 -0.352814 1.924541
C -1.153652 1.346955 1.042974
C -1.144712 0.029425 0.931280
C -0.168006 -0.717058 1.691702
O -0.090419 -1.976682 1.643443
O 0.741588 -0.086356 2.519902
O 2.709416 0.016664 -4.241147
C 1.897432 0.382844 -3.412345
O 2.049078 -0.006986 -2.053561
C 0.708923 1.249307 -3.778556
C -0.127655 1.457211 -2.806023
Pb -2.210840 1.347900 0.519960
H -0.484138 1.896674 1.660314
H -1.880553 1.894625 0.476327
H -1.823881 -0.499280 0.307653
H 0.143674 0.956521 -1.823308
H -3.008971 1.663476 -0.976497
H -2.808764 -0.352814 1.924541
C -1.153652 1.346955 1.042974
C -1.144712 0.029425 0.931280
C -0.168006 -0.717058 1.691702
O -0.090419 -1.976682 1.643443
O 0.741588 -0.086356 2.519902
O -2.395988 -0.486450 0.801777
C -1.941996 0.116994 -0.266474
O -1.005676 -0.591266 -0.921657
C -2.491390 1.399478 -0.584997
C -3.421700 1.917756 0.270478
Pb -2.210840 1.347900 0.519960
H -0.484138 1.896674 1.660314
H -1.880553 1.894625 0.476327
H -1.823881 -0.499280 0.307653
H -3.884154 2.839334 0.079388
H -3.008971 1.663476 -0.976497
H -2.808764 -0.352814 1.924541
C -1.153652 1.346955 1.042974
C -1.144712 0.029425 0.931280
C -0.168006 -0.717058 1.691702
O -0.090419 -1.976682 1.643443
O 0.741588 -0.086356 2.519902
O -3.984508 2.074040 5.141342
C -4.477397 1.293389 4.518756
O -5.010452 0.366807 5.777286
C -4.967713 0.536283 3.451204
C -5.715015 -0.544250 3.510085
Pb -2.210840 1.347900 0.519960
H -0.484138 1.896674 1.660314
H -1.880553 1.894625 0.476327
H -1.823881 -0.499280 0.307653
H -5.689227 -0.518225 2.078504
H -3.008971 1.663476 -0.976497
H -2.808764 -0.352814 1.924541
C -1.153652 1.346955 1.042974
C -1.144712 0.029425 0.931280
C -0.168006 -0.717058 1.691702
O -0.090419 -1.976682 1.643443
O 0.741588 -0.086356 2.519902
O -9.018358 -3.454564 4.599644
C -8.117774 -4.299959 4.478415
O -8.538122 -5.667280 4.450379
C -6.716209 -4.009814 4.362568
C -5.854794 -5.068671 4.350833
Pb -2.210840 1.347900 0.519960
H -0.484138 1.896674 1.660314
H -1.880553 1.894625 0.476327
H -1.823881 -0.499280 0.307653
H -6.330771 -6.066271 4.409021
H -3.008971 1.663476 -0.976497
H -2.808764 -0.352814 1.924541
C -1.153652 1.346955 1.042974
C -1.144712 0.029425 0.931280
C -0.168006 -0.717058 1.691702
O -0.090419 -1.976682 1.643443
O 0.741588 -0.086356 2.519902
O -5.439104 -5.695208 2.016344
C -4.327191 -6.268253 1.735817
O -4.307072 -6.848130 0.472695
C -3.265621 -6.254804 2.703868
C -2.088612 -6.790438 2.492992
Pb -2.210840 1.347900 0.519960
H -0.484138 1.896674 1.660314
H -1.880553 1.894625 0.476327
H -1.823881 -0.499280 0.307653
H -1.374551 -6.689350 3.357468
H -3.008971 1.663476 -0.976497
H -2.808764 -0.352814 1.924541
C -1.153652 1.346955 1.042974
C -1.144712 0.029425 0.931280
C -0.168006 -0.717058 1.691702
O -0.090419 -1.976682 1.643443
O 0.741588 -0.086356 2.519902
O 9.608986 5.480552 0.757123
C 9.274704 4.914272 -0.309003
O 9.828336 5.235579 -1.497263
C 8.234387 3.857720 -0.238422
C 7.837859 3.294368 -1.310699
Pb -2.210840 1.347900 0.519960
H -0.484138 1.896674 1.660314
H -1.880553 1.894625 0.476327
H -1.823881 -0.499280 0.307653
H 8.259117 3.754427 -2.249085
H -3.008971 1.663476 -0.976497
H -2.808764 -0.352814 1.924541
C -1.153652 1.346955 1.042974
C -1.144712 0.029425 0.931280
C -0.168006 -0.717058 1.691702
O -0.090419 -1.976682 1.643443
O 0.741588 -0.086356 2.519902
O 4.422971 4.966166 -3.585883
C 5.285081 4.212138 -2.994396
O 5.957486 4.985420 -2.004755
C 5.482034 2.841008 -3.290549
C 4.716856 2.321438 -4.239869
Pb -2.210840 1.347900 0.519960
H -0.484138 1.896674 1.660314
H -1.880553 1.894625 0.476327
H -1.823881 -0.499280 0.307653
H 4.803620 1.206915 -4.310213
H -3.008971 1.663476 -0.976497
H -2.808764 -0.352814 1.924541
C -1.153652 1.346955 1.042974
C -1.144712 0.029425 0.931280
C -0.168006 -0.717058 1.691702
O -0.090419 -1.976682 1.643443
O 0.741588 -0.086356 2.519902
O 0.067997 1.543985 -7.680191
C 1.192959 2.033149 -7.448436
O 2.052713 2.531841 -8.366038
C 1.528617 2.032110 -5.985331
C 0.611836 1.560436 -5.170455
Pb -2.210840 1.347900 0.519960
H -0.484138 1.896674 1.660314
H -1.880553 1.894625 0.476327
H -1.823881 -0.499280 0.307653
H -0.349756 1.261541 -5.668659
H -3.008971 1.663476 -0.976497
H -2.808764 -0.352814 1.924541
C -1.153652 1.346955 1.042974
C -1.144712 0.029425 0.931280
C -0.168006 -0.717058 1.691702
O -0.090419 -1.976682 1.643443
O 0.741588 -0.086356 2.519902
O -0.733770 3.619320 -4.585184
C -1.534048 3.405537 -3.622496
O -2.603233 4.249781 -3.544689
C -1.296963 2.293635 -2.650958
C -2.179734 2.213392 -1.699087
Pb -2.210840 1.347900 0.519960
H -0.484138 1.896674 1.660314
H -1.880553 1.894625 0.476327
H -1.823881 -0.499280 0.307653
H -2.985482 3.021470 -1.878266
H -3.008971 1.663476 -0.976497
H -2.808764 -0.352814 1.924541
C -1.153652 1.346955 1.042974
C -1.144712 0.029425 0.931280
C -0.168006 -0.717058 1.691702
O -0.090419 -1.976682 1.643443
O 0.741588 -0.086356 2.519902
O -2.024846 0.869644 3.511202
C -2.149645 1.359237 2.377460
O -1.022824 1.914945 1.769674
C -3.450942 1.381311 1.656312
C -4.608528 0.993166 2.080519
Pb -2.210840 1.347900 0.519960
H -0.484138 1.896674 1.660314
H -1.880553 1.894625 0.476327
H -1.823881 -0.499280 0.307653
H -5.428500 1.095112 1.371893
H -3.008971 1.663476 -0.976497
H -2.808764 -0.352814 1.924541
C -1.153652 1.346955 1.042974
C -1.144712 0.029425 0.931280
C -0.168006 -0.717058 1.691702
O -0.090419 -1.976682 1.643443
O 0.741588 -0.086356 2.519902
O -8.091298 -0.565657 2.120405
C -7.688299 -1.670311 2.579421
O -8.311083 -2.812535 2.208163
C -6.530287 -1.650659 3.478825
C -6.098178 -2.745423 4.123509
Pb -2.210840 1.347900 0.519960
H -0.484138 1.896674 1.660314
H -1.880553 1.894625 0.476327
H -1.823881 -0.499280 0.307653
H -5.093374 -2.558751 4.586907
H -3.008971 1.663476 -0.976497
H -2.808764 -0.352814 1.924541
C -1.153652 1.346955 1.042974
C -1.144712 0.029425 0.931280
C -0.168006 -0.717058 1.691702
O -0.090419 -1.976682 1.643443
O 0.741588 -0.086356 2.519902
O -2.836947 -4.339215 6.209366
C -4.072969 -4.357026 5.895207
O -5.035480 -3.819991 6.690354
C -4.438432 -5.021177 4.580291
C -3.438337 -5.541344 3.969978
Pb -2.210840 1.347900 0.519960
H -0.484138 1.896674 1.660314
H -1.880553 1.894625 0.476327
H -1.823881 -0.499280 0.307653
H -2.417409 -5.309451 4.439833
H -3.008971 1.663476 -0.976497
H -2.808764 -0.352814 1.924541
C -1.153652 1.346955 1.042974
C -1.144712 0.029425 0.931280
C -0.168006 -0.717058 1.691702
O -0.090419 -1.976682 1.643443
O 0.741588 -0.086356 2.519902
O 0.275104 -8.637895 0.404242
C -0.156629 -7.968121 1.350021
O 0.686668 -7.650205 2.373807
C -1.599391 -7.502091 1.374494
C -2.267528 -7.870511 0.305777
Pb -2.210840 1.347900 0.519960
H -0.484138 1.896674 1.660314
H -1.880553 1.894625 0.476327
H -1.823881 -0.499280 0.307653
H -1.894262 -8.402052 -0.523965
H -3.008971 1.663476 -0.976497
H -2.808764 -0.352814 1.924541
