272
Molecule ID: homopoly_5372954
O -0.049896 -4.321947 6.415941
C 0.444074 -4.673251 5.355958
O 1.000852 -3.797560 4.486017
C 0.510791 -6.042981 4.937187
C 0.596476 -7.311631 4.620240
C -0.071749 -8.332868 5.495690
C -1.074137 -7.974970 6.417761
C -1.689946 -8.943907 7.227437
C -1.310815 -10.278666 7.134543
C -0.308373 -10.644700 6.247750
C 0.316165 -9.680030 5.448192
H 0.813517 -2.938330 4.937002
H -1.404290 -6.942070 6.521114
H -2.456533 -8.645710 7.939712
H -1.785899 -11.024136 7.769260
H 0.004966 -11.685033 6.181108
H 1.112591 -10.012515 4.786488
O 2.913691 -10.960768 2.097569
C 3.196146 -9.782290 2.005857
O 4.355091 -9.289583 2.481130
C 2.320639 -8.714033 1.431095
C 2.472631 -8.458423 0.096676
C 3.579566 -9.174527 -0.637192
C 3.287739 -10.254792 -1.475963
C 4.315165 -10.928214 -2.147534
C 5.638990 -10.527406 -1.984650
C 5.942471 -9.452823 -1.153265
C 4.917685 -8.779526 -0.480053
H 4.815064 -10.077801 2.845133
H 2.266218 -10.604114 -1.609263
H 4.075963 -11.764210 -2.796226
H 6.436532 -11.048344 -2.513640
H 6.972510 -9.132362 -1.022948
H 5.174131 -7.953267 0.177282
O 2.331133 -7.219255 -4.234930
C 1.306811 -6.758947 -3.751658
O 0.096448 -7.151899 -4.183726
C 1.233743 -5.869032 -2.547167
C 0.624289 -4.653820 -2.649973
C 0.056094 -4.223951 -3.973537
C 0.905709 -3.940895 -5.052645
C 0.392533 -3.459423 -6.259038
C -0.982010 -3.281786 -6.409999
C -1.840856 -3.590811 -5.359666
C -1.328325 -4.061947 -4.149227
H 0.307521 -7.779427 -4.909308
H 1.982506 -4.058086 -4.948272
H 1.066596 -3.221281 -7.074928
H -1.382516 -2.905403 -7.350987
H -2.915649 -3.468845 -5.478979
H -2.024243 -4.300747 -3.352314
O -0.452234 -3.237499 1.954138
C 0.584644 -2.863659 1.430600
O 1.780041 -3.180915 1.956506
C 0.747368 -1.968889 0.236245
C 0.553201 -0.632441 0.472666
C -0.215032 -0.276806 1.722530
C 0.380782 -0.163212 2.981871
C -0.397039 -0.030074 4.135123
C -1.783004 -0.005861 4.049372
C -2.395175 -0.101916 2.806361
C -1.616496 -0.236863 1.656418
H 1.533169 -3.653224 2.784079
H 1.453574 -0.223477 3.088780
H 0.088559 0.038294 5.101687
H -2.388301 0.083731 4.948944
H -3.476165 -0.090253 2.720648
H -2.127592 -0.374129 0.709148
O 4.687766 -0.310502 0.220263
C 3.700554 -0.024580 0.878202
O 3.253300 -0.836362 1.838683
C 2.862996 1.196740 0.700037
C 3.118284 2.240441 1.550881
C 3.968065 1.964411 2.752535
C 3.362640 1.666826 3.980167
C 4.130668 1.366900 5.105566
C 5.521800 1.363086 5.019215
C 6.138300 1.658270 3.806522
C 5.370301 1.957889 2.679437
H 3.823057 -1.630606 1.770496
H 2.280092 1.702360 4.073127
H 3.643186 1.152347 6.054546
H 6.121228 1.138875 5.896043
H 7.224570 1.659338 3.734918
H 5.877965 2.170017 1.738995
O 0.952045 6.732708 -0.009570
C 0.660713 5.639505 0.435429
O -0.036553 4.713721 -0.246792
C 0.862899 5.146710 1.804649
C -0.127518 5.500200 2.675874
C 0.003504 5.042522 4.096443
C 0.416846 5.917501 5.112008
C 0.485290 5.492497 6.439671
C 0.137174 4.185064 6.770835
C -0.249094 3.298633 5.770706
C -0.300636 3.721160 4.441721
H -0.260044 5.184107 -1.080836
H 0.704000 6.940326 4.890397
H 0.794304 6.188908 7.215722
H 0.169516 3.857454 7.806675
H -0.531768 2.283479 6.027026
H -0.587412 3.008758 3.672997
O -2.338685 3.016100 2.115423
C -2.958976 4.062937 2.083136
O -3.797557 4.414137 3.073915
C -2.870158 5.107223 1.008353
C -3.408833 4.753176 -0.216761
C -4.266926 3.527254 -0.138753
C -5.573282 3.640536 0.376846
C -6.364986 2.508391 0.563248
C -5.866306 1.252168 0.231785
C -4.577461 1.131243 -0.283285
C -3.778218 2.260985 -0.468733
H -3.738956 3.659567 3.693729
H -5.972954 4.614903 0.652867
H -7.374932 2.605776 0.956671
H -6.474888 0.366555 0.373369
H -4.185377 0.149041 -0.537233
H -2.760086 2.147754 -0.834545
O -6.601447 5.673290 -2.844772
C -6.181450 4.530383 -2.781961
O -6.989162 3.554449 -2.337589
C -4.785319 4.077691 -3.124353
C -4.604066 2.950323 -3.886255
C -5.796720 2.256422 -4.464320
C -6.326546 1.094599 -3.888393
C -7.411578 0.445107 -4.480624
C -7.969313 0.943527 -5.658360
C -7.444084 2.097678 -6.239663
C -6.363488 2.749875 -5.648082
H -7.841701 4.000544 -2.162464
H -5.908744 0.693185 -2.966844
H -7.820498 -0.455532 -4.025349
H -8.808343 0.432854 -6.123136
H -7.876430 2.485400 -7.159527
H -5.957263 3.641682 -6.122688
O 3.541420 -7.891008 4.966619
C 2.980217 -7.401433 4.001685
O 3.571488 -6.474191 3.241378
C 1.580496 -7.653262 3.582504
C 1.283358 -8.215273 2.369207
C -0.156459 -8.496864 2.099381
C -1.068108 -7.447463 1.949299
C -2.421462 -7.701743 1.718894
C -2.873805 -9.010567 1.608524
C -1.983681 -10.067110 1.767806
C -0.629517 -9.813956 2.002701
H 4.492245 -6.444602 3.585161
H -0.729439 -6.420709 2.025897
H -3.118305 -6.880930 1.615417
H -3.933623 -9.208558 1.430462
H -2.339989 -11.089604 1.690150
H 0.039312 -10.656989 2.158380
O 0.116228 -9.525942 -1.119408
C 0.285070 -8.313036 -1.130519
O -0.743157 -7.500974 -1.406970
C 1.559650 -7.613515 -0.753989
C 1.936041 -6.437510 -1.355300
C 3.244260 -5.830578 -0.961808
C 3.444878 -5.356536 0.339851
C 4.689247 -4.850759 0.736371
C 5.743922 -4.801214 -0.170489
C 5.555286 -5.252482 -1.473891
C 4.312855 -5.762938 -1.867813
H -1.484608 -8.123108 -1.553494
H 2.638169 -5.398937 1.063951
H 4.826367 -4.486299 1.751025
H 6.712485 -4.401670 0.129854
H 6.368993 -5.209782 -2.188331
H 4.199549 -6.124502 -2.886589
O -1.939069 -3.380824 -0.971389
C -0.913455 -4.019524 -0.819488
O -0.856227 -5.070417 0.008711
C 0.394511 -3.772847 -1.474561
C 1.084945 -2.662535 -1.058102
C 2.120433 -2.145093 -1.999128
C 3.482519 -2.297006 -1.748118
C 4.439291 -1.850130 -2.670209
C 4.041816 -1.227147 -3.847950
C 2.690425 -1.021236 -4.094013
C 1.741179 -1.484365 -3.180345
H -1.734098 -5.033432 0.439292
H 3.816870 -2.752145 -0.825712
H 5.495590 -1.987182 -2.450653
H 4.787517 -0.868501 -4.554424
H 2.366172 -0.506464 -4.995668
H 0.690316 -1.337167 -3.416886
O -0.309459 1.282041 -2.583146
C -0.211949 0.508474 -1.654729
O -1.171073 -0.421592 -1.479322
C 0.834385 0.420425 -0.553799
C 1.962127 1.214322 -0.508094
C 2.426020 2.043656 -1.681484
C 3.718445 1.842578 -2.199669
C 4.214851 2.606280 -3.262528
C 3.423729 3.593692 -3.837528
C 2.151053 3.832277 -3.330144
C 1.671814 3.068276 -2.259562
H -1.902226 -0.204820 -2.105016
H 4.368181 1.075992 -1.786866
H 5.217285 2.417430 -3.638735
H 3.800283 4.185891 -4.666189
H 1.525883 4.605799 -3.764140
H 0.674001 3.273247 -1.891116
O 5.019348 4.056651 0.378355
C 3.822626 4.280048 0.356659
O 3.305638 5.136598 -0.535741
C 2.748559 3.657924 1.215696
C 2.186963 4.519976 2.126690
C 3.130239 5.425670 2.895061
C 3.552797 5.058650 4.178791
C 4.424903 5.867582 4.909149
C 4.879471 7.067228 4.372367
C 4.438823 7.470239 3.114525
C 3.569128 6.656628 2.378489
H 4.080324 5.404641 -1.071174
H 3.177091 4.152488 4.642464
H 4.740049 5.553524 5.900515
H 5.554974 7.694499 4.943368
H 4.784786 8.408411 2.690507
H 3.235919 7.000044 1.399843
O -1.524984 8.222917 4.008831
C -0.973700 7.813931 3.000309
O -0.023319 8.529454 2.378168
C -1.202645 6.495952 2.324416
C -2.320341 6.397837 1.528860
C -3.228756 7.599846 1.481613
C -4.471242 7.559325 2.128580
C -5.310049 8.676706 2.147271
C -4.914028 9.855519 1.515744
C -3.678069 9.918467 0.881035
C -2.837847 8.807369 0.882443
H 0.039277 9.349825 2.910960
H -4.798746 6.667439 2.655619
H -6.258629 8.634474 2.667174
H -5.567248 10.724693 1.522395
H -3.370648 10.830563 0.380831
H -1.873710 8.884275 0.380347
O -2.894997 7.837410 -1.720807
C -2.466951 6.705788 -1.597239
O -1.151328 6.442494 -1.644294
C -3.269792 5.453266 -1.550638
C -3.741222 5.106226 -2.805941
C -3.298231 5.939350 -3.996312
C -1.976261 5.862722 -4.468550
C -1.538462 6.675343 -5.515533
C -2.420660 7.566926 -6.118943
C -3.738104 7.651825 -5.671953
C -4.170172 6.844935 -4.614625
H -0.737508 7.340331 -1.692239
H -1.274486 5.166135 -4.015359
H -0.513385 6.600129 -5.867373
H -2.081105 8.200479 -6.933037
H -4.419189 8.366404 -6.121182
H -5.186118 6.978674 -4.253586
O -3.136404 0.369245 -2.973638
C -3.064587 0.930732 -4.053365
O -2.739884 0.238569 -5.164232
C -3.304068 2.385537 -4.308760
C -2.640705 2.884072 -5.316038
C -1.775999 3.203480 -6.409820
C -0.439608 2.794890 -6.357159
C 0.422966 3.072515 -7.419469
C -0.048335 3.768617 -8.530320
C -1.382925 4.174111 -8.585913
C -2.249390 3.888200 -7.525516
H -2.596405 -0.684615 -4.877858
H -0.062137 2.247433 -5.493415
H 1.460793 2.752696 -7.373060
H 0.617773 3.990751 -9.357121
H -1.753328 4.712450 -9.455272
H -3.287867 4.210226 -7.576237
