208
Molecule ID: homopoly_67889
O -7.611445 -2.011748 -1.375066
C -6.691496 -1.692742 -0.635688
O -6.146022 -2.441001 0.355536
C -6.492004 -3.835871 0.330146
C -5.354535 -4.643616 -0.273642
F -4.316507 -4.788039 0.586365
F -4.863994 -4.058805 -1.396534
F -5.772848 -5.885058 -0.608894
C -5.974649 -0.460799 -0.851277
C -5.299165 0.582912 -1.238152
H -6.668691 -4.143017 1.363525
H -7.422772 -4.029034 -0.218157
H -4.919455 0.546878 -2.257588
O -3.639653 5.866090 0.659809
C -4.077258 4.940658 -0.016411
O -5.337435 4.863982 -0.527112
C -6.139349 6.043684 -0.316643
C -7.616378 5.739051 -0.533530
F -7.836529 5.206718 -1.756922
F -8.366638 6.859977 -0.431869
F -8.072657 4.852626 0.387094
C -3.288423 3.746009 -0.454844
C -1.954643 3.830736 -0.629792
H -5.821839 6.810118 -1.039177
H -5.997381 6.444060 0.695782
H -1.433046 2.923770 -0.936350
O 1.568698 8.308020 0.219573
C 0.776574 7.414029 0.481445
O -0.480887 7.598353 0.925710
C -0.892077 8.975013 1.070185
C -1.369992 9.629076 -0.219676
F -0.414434 9.645946 -1.174842
F -1.740922 10.913397 0.000191
F -2.431142 8.974368 -0.729880
C 1.087846 5.943699 0.369681
C 2.408933 5.661720 0.470081
H -1.723626 8.975580 1.789237
H -0.084503 9.571565 1.540310
H 3.097111 6.497259 0.587253
O 6.195644 4.549489 1.734933
C 6.231459 3.509765 1.070210
O 7.047192 2.453160 1.318113
C 7.832539 2.582071 2.523272
C 7.093280 2.107128 3.761346
F 7.355330 2.885361 4.831890
F 5.745878 2.094540 3.583312
F 7.464098 0.857649 4.096164
C 5.307989 3.264496 -0.092348
C 5.527353 2.183173 -0.876241
H 8.725182 1.961966 2.372612
H 8.199060 3.608744 2.635766
H 6.373555 1.541342 -0.625647
O 3.368508 -1.021637 -5.323093
C 4.091865 -0.478689 -4.507913
O 5.169268 0.279665 -4.838632
C 5.482826 0.316881 -6.245007
C 6.362974 -0.848755 -6.685605
F 6.626612 -0.770981 -8.011376
F 7.558090 -0.800237 -6.043117
F 5.810070 -2.048482 -6.432620
C 3.967009 -0.579830 -3.030649
C 3.239744 -1.568584 -2.473245
H 4.569371 0.381748 -6.859324
H 6.030581 1.252414 -6.422365
H 3.226100 -1.634873 -1.385775
O 0.114639 -3.881293 -5.352990
C -0.421402 -4.102714 -4.278549
O -1.570599 -4.800752 -4.113128
C -2.118970 -5.301121 -5.346434
C -3.580404 -5.685068 -5.183052
F -4.077735 -6.149271 -6.361858
F -3.744435 -6.655637 -4.255367
F -4.329584 -4.622444 -4.814110
C 0.063593 -3.536243 -2.970049
C -0.447089 -3.913690 -1.785689
H -1.548953 -6.184744 -5.655196
H -2.056636 -4.538583 -6.129938
H -1.238394 -4.666313 -1.721688
O -0.226148 1.223986 0.626428
C -0.381632 0.154273 0.048942
O -0.038565 -0.072945 -1.235488
C 0.547692 1.036244 -1.934268
C -0.275629 1.429374 -3.150277
F 0.000390 2.688897 -3.555230
F -1.599881 1.369093 -2.860905
F -0.053459 0.587697 -4.182412
C -0.945692 -1.106837 0.686120
C -1.428559 -0.882133 1.921405
H 1.535817 0.699023 -2.249908
H 0.707030 1.915609 -1.295139
H -1.360135 0.164217 2.333857
O -2.294143 -0.006772 5.616298
C -1.527749 -0.798540 6.142519
O -0.954917 -0.621616 7.357430
C -1.325815 0.614258 7.989134
C -0.600157 0.779027 9.307642
F 0.733181 0.894866 9.135583
F -1.022483 1.894381 9.948468
F -0.823541 -0.263392 10.136837
C -0.951698 -1.977752 5.416597
C -0.392158 -2.993945 6.123435
H -1.064858 1.451041 7.332790
H -2.406622 0.612085 8.167418
H -0.419778 -2.973792 7.216740
O -4.900961 2.554342 1.840905
C -5.487070 2.014470 0.911356
O -6.795286 1.653845 0.914774
C -7.519950 1.940996 2.129916
C -7.387897 0.829981 3.162848
F -8.294989 0.992892 4.161540
F -6.161509 0.776479 3.725887
F -7.645304 -0.387057 2.609746
C -4.885661 1.718551 -0.423044
C -3.934062 2.521973 -0.935016
H -8.567263 2.028848 1.829704
H -7.233275 2.907594 2.541711
H -3.546579 2.254924 -1.921155
O -2.425756 6.255899 -2.128442
C -1.322220 6.016148 -1.662138
O -0.161657 6.547843 -2.130602
C -0.317865 7.445037 -3.254307
C -0.808999 6.789144 -4.537656
F -0.074325 7.222507 -5.596104
F -0.695659 5.441380 -4.498981
F -2.098049 7.089827 -4.802565
C -1.060101 4.981622 -0.605196
C 0.024788 4.946983 0.215111
H 0.677526 7.870201 -3.429564
H -0.972325 8.277059 -2.974064
H 0.135814 4.079468 0.869924
O 2.422247 3.829308 2.751060
C 2.785622 3.460426 1.646510
O 2.955175 2.160362 1.269612
C 2.749488 1.226715 2.355069
C 3.213535 -0.143281 1.919006
F 3.044090 -1.057434 2.902986
F 2.511124 -0.585883 0.845812
F 4.521839 -0.139504 1.571038
C 3.107885 4.382266 0.512945
C 4.215437 4.226665 -0.249225
H 1.685285 1.189196 2.615234
H 3.318975 1.539120 3.243007
H 4.466153 5.023084 -0.956593
O 2.908606 2.285219 -3.365211
C 4.040359 2.481404 -2.967017
O 4.862103 3.480750 -3.380292
C 4.359676 4.319573 -4.445759
C 3.079987 5.099428 -4.148452
F 2.944514 5.347780 -2.823494
F 3.101235 6.303511 -4.773837
F 1.969019 4.461529 -4.560854
C 4.750089 1.630407 -1.979569
C 4.697562 0.278310 -2.102823
H 4.265198 3.731152 -5.364974
H 5.164405 5.048438 -4.634915
H 5.233119 -0.300684 -1.341685
O 4.417992 -4.021451 -3.191706
C 3.201389 -3.934957 -3.302771
O 2.387535 -4.918336 -3.743999
C 3.074247 -6.062828 -4.282079
C 2.100243 -7.191918 -4.545239
F 1.088722 -6.813863 -5.355389
F 1.544827 -7.648742 -3.402455
F 2.724716 -8.238234 -5.134646
C 2.454048 -2.657442 -3.043617
C 1.109981 -2.509882 -3.047239
H 3.534466 -5.759419 -5.235928
H 3.846060 -6.403242 -3.589770
H 0.683020 -1.523365 -2.915566
O 2.093409 -4.000060 -0.457842
C 1.156831 -3.488982 0.134069
O 1.166317 -3.261337 1.476299
C 2.266076 -3.920250 2.152787
C 2.138675 -5.443019 2.143161
F 2.604714 -5.968524 3.291420
F 2.809089 -6.025642 1.127580
F 0.841194 -5.816661 2.032964
C -0.163843 -3.221497 -0.507729
C -1.086584 -2.318720 -0.102614
H 2.223411 -3.558774 3.179944
H 3.227475 -3.588004 1.730060
H -1.994851 -2.247297 -0.704411
O -3.992158 -2.312883 2.273463
C -3.151625 -2.310100 3.157638
O -3.357038 -2.795493 4.415889
C -4.692631 -3.256429 4.732130
C -4.799057 -3.434501 6.233593
F -3.857866 -4.284595 6.701391
F -4.637544 -2.266410 6.897728
F -6.003777 -3.940247 6.586985
C -1.769788 -1.787755 3.021781
C -0.808653 -1.784932 3.986416
H -4.852792 -4.212557 4.237681
H -5.433758 -2.529612 4.388771
H 0.162384 -1.320846 3.763740
O 2.099426 -3.980762 7.130770
C 1.505788 -4.654505 6.296544
O 1.854780 -5.907407 5.902790
C 3.078531 -6.395729 6.493778
C 4.336483 -5.909292 5.785325
F 4.653438 -6.693526 4.731795
F 5.392028 -5.935424 6.625311
F 4.211317 -4.648867 5.325002
C 0.278290 -4.174569 5.595335
C -0.316640 -4.911428 4.689851
H 3.107041 -6.121285 7.556455
H 3.037509 -7.488668 6.459277
H -0.821333 -5.495331 3.956263
