240
Molecule ID: homopoly_165336
C -1.200921 1.374659 1.005396
C -1.090999 0.041460 0.977914
C -0.064561 -0.739774 1.777347
O -0.133874 -2.015718 1.603108
O 0.732542 -0.087861 2.512071
O 14.434294 4.157220 2.433752
C 13.295339 3.598601 2.429568
O 12.866781 2.705196 3.242757
C 12.249977 3.979186 1.244973
C 11.203471 3.909119 0.416846
Mg -4.990559 0.713629 -2.431906
H -0.527961 1.963482 1.629179
H -1.945409 1.898532 0.421685
H -1.772590 -0.546476 0.346894
H 10.271536 3.330470 0.657206
C -1.201864 1.370819 1.004243
C -1.094909 0.043409 0.974775
C -0.056457 -0.751522 1.783158
O -0.129182 -1.998600 1.608650
O 0.726222 -0.084918 2.506980
O 11.819831 2.262080 -2.463938
C 10.567515 2.199509 -2.277575
O 9.942001 1.122226 -1.977826
C 9.702040 3.497879 -2.469856
C 8.685142 3.370371 -3.427163
Mg -4.990559 0.713629 -2.431906
H -0.529913 1.961437 1.627333
H -1.946787 1.897285 0.420395
H -1.770882 -0.549608 0.348059
H 8.506030 2.325455 -3.723279
C -1.201501 1.377868 1.005190
C -1.095260 0.036318 0.973833
C -0.056510 -0.757562 1.782566
O -0.129429 -1.993920 1.608864
O 0.728160 -0.082534 2.508841
O 6.275842 4.027560 -7.436856
C 5.619154 4.822751 -6.656609
O 5.417013 6.089139 -6.806710
C 5.194059 4.229882 -5.230458
C 3.885843 3.901605 -4.831862
Mg -4.990559 0.713629 -2.431906
H -0.532202 1.962055 1.625453
H -1.947333 1.895985 0.419817
H -1.769698 -0.549906 0.349030
H 3.742755 3.573894 -3.729269
C -1.232168 1.354132 0.977029
C -1.090383 0.024743 0.976930
C -0.040607 -0.717929 1.799644
O -0.069136 -1.975153 1.661665
O 0.734701 -0.020986 2.519982
O 1.403432 0.224476 -5.289377
C 1.759150 0.913387 -4.292417
O 2.555999 0.573199 -3.343473
C 0.982327 2.290583 -4.075410
C -0.177514 2.117708 -3.353661
Mg -4.990559 0.713629 -2.431906
H -0.576860 1.976706 1.588888
H -1.987815 1.844977 0.380866
H -1.741503 -0.598186 0.368590
H -0.116670 1.242769 -2.671293
C -1.188863 1.387201 1.016747
C -1.098227 0.041945 0.971829
C -0.064152 -0.763094 1.775589
O -0.153426 -2.004040 1.587606
O 0.721723 -0.114248 2.500514
O -1.803622 0.127692 0.195537
C -2.406552 0.317449 -0.918945
O -2.537163 -0.554942 -1.896431
C -3.151674 1.656165 -1.122010
C -4.294226 2.059626 -0.425387
Mg -4.990559 0.713629 -2.431906
H -0.512632 1.954467 1.641353
H -1.929506 1.916311 0.436764
H -1.778689 -0.530240 0.343192
H -4.639582 3.037103 -0.762635
C -1.193990 1.378595 1.011624
C -1.096960 0.044426 0.973126
C -0.062191 -0.763093 1.777247
O -0.143138 -1.998449 1.596826
O 0.724793 -0.101461 2.504274
O -8.192775 1.608503 2.391384
C -7.498209 0.695077 3.020176
O -7.454405 0.561224 4.296697
C -6.601908 -0.269949 2.160935
C -6.583323 -1.632279 2.389800
Mg -4.990559 0.713629 -2.431906
H -0.520065 1.958295 1.635400
H -1.937507 1.908097 0.429248
H -1.774714 -0.538107 0.345849
H -5.876417 -2.199598 1.771374
C -1.186838 1.379158 1.017730
C -1.098817 0.054115 0.972433
C -0.069092 -0.772146 1.770583
O -0.157747 -2.004261 1.583937
O 0.722162 -0.120975 2.500271
O -10.090443 -4.160175 5.528190
C -9.510623 -4.817508 4.596401
O -10.130270 -5.677005 3.859432
C -7.919290 -4.794371 4.532554
C -7.451310 -5.887570 5.234992
Mg -4.990559 0.713629 -2.431906
H -0.506724 1.954402 1.646348
H -1.925444 1.923395 0.440841
H -1.781273 -0.525385 0.341450
H -8.263923 -6.624163 5.465007
C -1.222887 1.364280 0.985819
C -1.087140 0.026905 0.979873
C -0.043925 -0.731984 1.795556
O -0.090991 -1.980207 1.642677
O 0.731144 -0.044760 2.514814
O -7.962782 -9.530127 4.968341
C -6.753129 -9.931886 5.056919
O -6.407362 -11.154679 5.273429
C -5.589432 -8.879429 4.882207
C -4.398193 -9.222498 4.321171
Mg -4.990559 0.713629 -2.431906
H -0.563798 1.973658 1.599692
H -1.972557 1.863050 0.395439
H -1.753618 -0.582638 0.359724
H -3.536650 -8.561807 4.523588
C -1.215233 1.372506 0.993067
C -1.091360 0.027456 0.976336
C -0.046887 -0.739122 1.792391
O -0.105729 -1.989990 1.629299
O 0.727083 -0.056749 2.510268
O 10.913593 6.802439 0.913199
C 11.356148 6.401125 -0.209786
O 12.174322 7.025309 -0.954025
C 10.910777 4.947300 -0.640776
C 10.211371 4.740494 -1.809423
Mg -4.990559 0.713629 -2.431906
H -0.549619 1.966813 1.611123
H -1.961962 1.873277 0.405361
H -1.760065 -0.565889 0.355748
H 9.965312 5.640543 -2.375471
C -1.204537 1.370701 1.001970
C -1.092362 0.040829 0.976697
C -0.059259 -0.750715 1.780853
O -0.124189 -1.996593 1.613054
O 0.731357 -0.077585 2.512004
O 8.242612 6.614229 -4.724017
C 8.517412 5.383635 -5.029208
O 9.478788 5.004919 -5.821862
C 7.741917 4.250246 -4.221230
C 6.403953 3.920812 -4.291549
Mg -4.990559 0.713629 -2.431906
H -0.535352 1.964261 1.622989
H -1.951151 1.891989 0.416221
H -1.768278 -0.554586 0.349806
H 6.130100 3.012626 -3.737887
C -1.204759 1.373450 1.002030
C -1.095918 0.036689 0.973310
C -0.051334 -0.747604 1.787854
O -0.126246 -1.995730 1.611402
O 0.724881 -0.081769 2.506120
O 1.961592 5.609533 -7.177085
C 2.407226 4.398883 -7.071329
O 2.442645 3.526994 -8.015280
C 2.584291 3.801738 -5.602665
C 1.396585 3.218448 -5.190725
Mg -4.990559 0.713629 -2.431906
H -0.533829 1.963752 1.624227
H -1.949579 1.890765 0.417443
H -1.766988 -0.551251 0.351208
H 0.518770 3.314268 -5.890838
C -1.192037 1.380632 1.013465
C -1.096797 0.045766 0.973387
C -0.068630 -0.764902 1.771625
O -0.154135 -2.008124 1.586619
O 0.728726 -0.104767 2.507317
O -1.295844 5.131370 -3.811641
C -1.812162 3.986818 -4.029511
O -2.639195 3.715968 -4.970886
C -1.492619 2.812003 -3.103725
C -2.593527 2.571930 -2.253582
Mg -4.990559 0.713629 -2.431906
H -0.512491 1.956995 1.641704
H -1.929748 1.915865 0.436526
H -1.778661 -0.533162 0.342951
H -3.386595 3.273991 -2.479118
C -1.182348 1.384578 1.022027
C -1.101568 0.044928 0.969270
C -0.058132 -0.765512 1.780479
O -0.153456 -2.005413 1.587471
O 0.723243 -0.109372 2.502241
O -5.342154 3.334781 2.620627
C -5.758265 3.083802 1.424277
O -6.336819 3.933293 0.651379
C -5.253214 1.687212 0.754548
C -5.606244 0.423655 1.148193
Mg -4.990559 0.713629 -2.431906
H -0.517303 1.955079 1.637432
H -1.935783 1.918473 0.431634
H -1.778426 -0.534457 0.343041
H -5.114542 -0.354202 0.512199
C -1.188533 1.380405 1.016410
C -1.095822 0.048503 0.974462
C -0.069516 -0.762136 1.771128
O -0.152019 -2.008884 1.588363
O 0.728310 -0.110711 2.506417
O -9.906736 -1.945664 2.495351
C -8.911697 -2.664689 2.149780
O -8.877422 -3.450317 1.120657
C -7.594850 -2.618051 3.023156
C -7.236147 -3.568153 3.959159
Mg -4.990559 0.713629 -2.431906
H -0.515130 1.957377 1.639494
H -1.932764 1.916087 0.433982
H -1.778298 -0.532340 0.343337
H -6.197054 -3.524043 4.265978
C -1.191155 1.382004 1.014334
C -1.100549 0.045668 0.970200
C -0.065680 -0.765412 1.774081
O -0.156467 -2.007577 1.584721
O 0.724549 -0.114022 2.502912
O -4.686112 -5.434823 7.466253
C -5.903658 -5.781918 7.283031
O -6.767662 -5.837418 8.231486
C -6.262376 -6.450621 5.915979
C -5.600400 -7.659588 5.756957
Mg -4.990559 0.713629 -2.431906
H -0.508537 1.956258 1.644979
H -1.926984 1.919877 0.439232
H -1.778950 -0.528494 0.343137
H -4.862015 -7.842949 6.541690
C -1.212226 1.363100 0.994764
C -1.092634 0.036808 0.976103
C -0.042861 -0.742942 1.795458
O -0.105696 -1.986491 1.629649
O 0.727133 -0.057334 2.510251
O -2.997851 -12.520181 3.134098
C -3.195389 -11.551455 3.989504
O -2.683182 -11.518883 5.149201
C -4.024156 -10.363885 3.461865
C -3.706547 -9.991112 2.242346
Mg -4.990559 0.713629 -2.431906
H -0.551425 1.967846 1.609684
H -1.966944 1.876797 0.401463
H -1.759120 -0.569481 0.356225
H -3.250377 -9.498391 1.412578
