1008
Molecule ID: homopoly_12000883
O -13.370193 2.751009 -2.164996
C -12.327455 3.354223 -1.972693
O -11.881250 4.453629 -2.573135
C -12.357592 4.706616 -3.911480
C -11.641764 6.015833 -4.295632
C -11.387948 6.271826 -5.735847
C -11.160494 7.545030 -6.103684
O -11.211161 8.599163 -5.214130
C -12.252332 8.503014 -4.229865
O -11.885708 9.278186 -3.063441
C -12.768481 10.397082 -2.897874
O -14.120826 9.933745 -2.899359
C -15.087105 10.991458 -2.846647
C -15.064294 11.873827 -4.104842
O -15.167541 11.057608 -5.270344
C -14.895143 11.817297 -1.556093
O -16.084526 11.802044 -0.751659
C -13.740440 11.252142 -0.723668
O -13.488218 12.128018 0.390161
C -12.459971 11.112840 -1.558745
O -11.935725 12.438933 -1.814875
C -12.562247 7.099546 -3.709479
C -13.954912 6.530636 -3.964512
C -15.011432 7.199805 -4.776165
O -15.925961 6.248545 -5.307228
O -14.418145 5.708299 -2.872676
C -13.820221 5.037681 -3.974443
C -11.261741 2.799289 -1.169431
C -10.172942 2.146295 -0.804949
C -10.269978 1.325494 0.409325
C -9.876086 -0.024554 0.467297
C -10.186980 -0.819793 1.579872
C -10.834937 -0.277134 2.667304
O -11.125543 -1.016797 3.789648
C -11.211566 1.065682 2.645034
O -11.846195 1.628245 3.723728
C -10.946695 1.851759 1.533304
H -12.069131 3.871972 -4.567809
H -10.658291 6.058739 -3.786267
H -11.305489 5.457422 -6.441538
H -10.850039 7.854533 -7.089457
H -13.129045 8.953158 -4.723555
H -12.580796 11.056537 -3.749918
H -16.059902 10.487114 -2.823436
H -15.893915 12.584064 -4.098334
H -14.126679 12.447221 -4.184707
H -15.117452 11.657489 -6.037337
H -14.713417 12.872745 -1.787809
H -16.344921 10.877618 -0.598067
H -14.022255 10.275877 -0.302161
H -14.369449 12.403870 0.715524
H -11.680844 10.594981 -0.998376
H -11.888583 12.857369 -0.927133
H -12.444634 7.107483 -2.619059
H -14.568570 7.711902 -5.631228
H -15.560639 7.919317 -4.162341
H -16.528665 6.734150 -5.892494
H -14.416276 4.403952 -4.620537
H -9.389345 -0.508963 -0.384369
H -9.959127 -1.882752 1.580141
H -10.489251 -1.755271 3.812465
H -11.860760 0.902130 4.382776
H -11.298370 2.876897 1.537952
O -5.017075 1.597205 -0.059780
C -6.059545 1.569110 -0.665055
O -6.469149 0.529495 -1.474063
C -5.578597 -0.584129 -1.706497
C -5.451385 -0.986685 -3.215978
C -6.576520 -0.555198 -4.103128
C -7.362654 -1.374871 -4.784627
O -7.234234 -2.733835 -4.814688
C -5.892321 -3.139616 -4.539502
O -5.835433 -4.574461 -4.615226
C -5.258230 -5.029390 -5.854405
O -6.180486 -5.720063 -6.689789
C -6.335632 -7.133287 -6.500523
C -7.391333 -7.425585 -5.425513
O -7.729811 -8.810743 -5.368139
C -5.005101 -7.890236 -6.320962
O -4.278074 -7.857693 -7.564865
C -4.138910 -7.252326 -5.239131
O -4.695078 -7.467465 -3.942985
C -3.947143 -5.764345 -5.538963
O -3.284479 -5.106428 -4.437758
C -5.310849 -2.548684 -3.222364
C -5.950474 -3.005906 -1.938608
C -5.533596 -4.286276 -1.284905
O -5.097749 -5.248696 -2.236102
O -7.237947 -2.474319 -1.606628
C -6.104831 -1.816129 -1.039100
C -7.086129 2.708080 -0.712528
C -7.029633 3.780233 0.144508
C -8.131578 4.811328 0.066137
C -8.214671 5.725464 -0.996914
C -9.253219 6.661623 -1.099449
C -10.226305 6.693590 -0.114772
O -11.261876 7.578484 -0.148726
C -10.141916 5.818458 0.963134
O -11.084786 5.874132 1.953753
C -9.115396 4.878711 1.058962
H -4.572774 -0.382197 -1.310823
H -4.542935 -0.535140 -3.623887
H -6.766957 0.509083 -4.205956
H -8.213386 -1.049974 -5.384161
H -5.270722 -2.696223 -5.329185
H -4.969224 -4.166087 -6.454836
H -6.754599 -7.490560 -7.449660
H -8.311007 -6.870253 -5.641655
H -7.069260 -7.109771 -4.430509
H -7.964965 -9.101906 -6.268294
H -5.199583 -8.945823 -6.093126
H -3.516959 -8.453178 -7.470283
H -3.161012 -7.739308 -5.237817
H -4.037556 -7.134378 -3.298962
H -3.290953 -5.676990 -6.413641
H -3.927972 -5.124433 -3.693306
H -4.243008 -2.794946 -3.166870
H -6.331614 -4.718457 -0.667856
H -4.675847 -4.081174 -0.632200
H -5.881809 -5.450395 -2.798786
H -5.919665 -1.883656 0.018761
H -7.451231 5.727739 -1.764004
H -9.284071 7.346989 -1.942882
H -11.200547 8.109546 -0.962718
H -11.697705 6.587069 1.675581
H -9.108338 4.207255 1.906806
O -4.273037 6.955113 4.158638
C -4.849970 6.234747 3.366717
O -5.761562 6.719320 2.470728
C -6.272438 8.053819 2.754244
C -7.354147 8.397546 1.683286
C -8.649509 8.801433 2.308865
C -9.310727 9.913492 1.957297
O -8.906357 10.821501 1.033800
C -7.800152 10.496696 0.186556
O -7.180263 11.738305 -0.143061
C -7.028313 12.029322 -1.529742
O -8.283175 12.027109 -2.220537
C -8.133891 12.361241 -3.615325
C -9.516243 12.284897 -4.290466
O -10.409008 13.293829 -3.818168
C -7.477237 13.740169 -3.829852
O -7.139689 13.920027 -5.213484
C -6.185294 13.862411 -3.009453
O -5.731824 15.222246 -3.059439
C -6.410682 13.440246 -1.568405
O -7.290902 14.409961 -0.945505
C -6.761238 9.490437 0.751951
C -5.594463 10.077316 1.503877
C -4.536378 10.848618 0.782538
O -3.236977 10.446341 1.199915
O -5.835285 10.483090 2.858087
C -5.273894 9.172791 2.646486
C -4.688291 4.700534 3.273730
C -3.844721 4.074848 4.180664
C -3.450041 4.787292 5.455533
C -4.433955 5.214878 6.377396
C -4.087350 5.935358 7.524540
C -2.758551 6.210056 7.780868
O -2.357195 6.934925 8.866887
C -1.775500 5.734771 6.922163
O -0.458333 5.981076 7.177385
C -2.105940 5.012181 5.782419
H -6.705155 8.025831 3.764356
H -7.546602 7.503980 1.090099
H -9.090963 8.152526 3.064476
H -10.237624 10.223891 2.421797
H -8.246072 10.036157 -0.708670
H -6.346277 11.299835 -1.983741
H -7.505602 11.588929 -4.087954
H -9.979010 11.313398 -4.080235
H -9.430361 12.402415 -5.373470
H -10.729628 13.003004 -2.938617
H -8.163888 14.549552 -3.540637
H -6.545801 14.697873 -5.242143
H -5.391422 13.254647 -3.466171
H -6.259658 15.692566 -2.378555
H -5.477300 13.490306 -0.997044
H -7.707162 13.941362 -0.190626
H -6.320820 8.983009 -0.110874
H -4.642040 11.918802 0.974736
H -4.606385 10.680743 -0.296649
H -2.638158 10.647030 0.447824
H -4.259887 8.999716 2.969522
H -5.485189 5.009156 6.185142
H -4.869135 6.270447 8.199992
H -3.132339 7.416057 9.205312
H -0.442680 6.522540 7.989710
H -1.299877 4.643076 5.164616
O -3.586772 -0.832548 2.424322
C -3.265853 -0.717793 3.597949
O -3.690559 -1.452301 4.654581
C -4.411066 -2.657687 4.483350
C -5.919944 -2.500965 4.207899
C -6.410131 -2.358197 2.815443
C -7.560211 -2.945354 2.445996
O -8.392968 -3.667080 3.272852
C -7.992345 -3.839663 4.662063
O -8.582254 -2.830410 5.481820
C -9.677318 -3.342152 6.256284
O -10.821324 -3.494095 5.421804
C -11.917039 -3.969711 6.216135
C -12.951797 -4.625258 5.303978
O -13.948179 -5.264488 6.090026
C -12.463008 -2.746919 6.952152
O -12.911456 -1.734821 6.021805
C -11.380126 -2.119829 7.850019
O -11.575593 -0.687421 7.904000
C -9.909073 -2.421893 7.485491
O -9.289280 -3.066521 8.646823
C -6.475070 -3.825361 4.753688
C -5.755039 -3.969854 6.054431
C -6.395335 -3.884284 7.386120
O -7.273177 -4.991243 7.575535
O -4.526223 -4.708128 5.957322
C -4.442701 -3.289514 5.861863
C -2.324028 0.295688 4.188252
C -1.131863 -0.204625 4.631871
C -0.388840 0.626920 5.633750
C 0.444487 1.679447 5.282084
C 1.127180 2.405585 6.258008
C 0.968601 2.073637 7.603309
O 1.626783 2.784906 8.559907
C 0.139973 1.030693 7.972836
O -0.010661 0.766236 9.314843
C -0.542849 0.299008 6.996352
H -3.922435 -3.313353 3.759188
H -6.273865 -1.641629 4.784883
H -5.841674 -1.757742 2.110286
H -7.960970 -2.882757 1.443162
H -8.349050 -4.834524 4.945033
H -9.413314 -4.336340 6.631352
H -11.576292 -4.725873 6.941162
H -12.466251 -5.378148 4.673173
H -13.423047 -3.892371 4.638794
H -14.624749 -5.591985 5.470785
H -13.327904 -3.019434 7.569899
H -12.316433 -1.751848 5.239510
H -11.563458 -2.460317 8.880127
H -12.111582 -0.488156 7.104096
H -9.342861 -1.488004 7.366806
H -9.423474 -2.459659 9.398992
H -6.135839 -4.639687 4.105326
H -5.654867 -3.911771 8.192612
H -6.949183 -2.941241 7.485228
H -7.773622 -4.792305 8.389734
H -4.031047 -2.680794 6.662245
H 0.588567 1.968453 4.237844
H 1.790358 3.228861 5.998269
H 1.374303 2.399081 9.411003
H -0.657812 0.045961 9.411971
H -1.224552 -0.469557 7.308974
O 2.413176 -1.119360 5.211657
C 2.172937 -2.327451 5.106307
O 2.304703 -3.217324 6.124981
C 2.737002 -2.673155 7.396722
C 4.093018 -1.871783 7.418000
C 3.877812 -0.492734 7.983361
C 4.412950 -0.094410 9.146945
O 5.250950 -0.837187 9.929153
C 5.947567 -1.883364 9.244530
O 7.087187 -1.344199 8.571258
C 8.321435 -1.665826 9.216754
O 9.104575 -0.474589 9.326759
C 10.360640 -0.708735 9.974170
C 11.037838 0.643631 10.188029
O 12.276906 0.480869 10.870800
C 11.219527 -1.692258 9.151994
O 11.533111 -1.172037 7.848761
C 10.443772 -2.994517 8.931383
O 11.145885 -3.844778 8.000255
C 9.041400 -2.729965 8.373906
O 8.307691 -3.972610 8.364263
C 5.112169 -2.688555 8.247640
C 4.344982 -3.802821 8.896627
C 5.070367 -5.029825 9.357849
O 4.179945 -6.129707 9.533123
O 3.210590 -3.441561 9.697235
C 2.978558 -3.829911 8.339261
C 1.624000 -2.897785 3.782254
C 2.439815 -3.847888 3.166987
C 3.335410 -4.658752 4.094307
C 4.559623 -4.167625 4.571424
C 5.384350 -4.946844 5.387232
C 4.987723 -6.224821 5.742542
O 5.789435 -6.991363 6.531952
C 3.769307 -6.723584 5.301413
O 3.427105 -7.990748 5.702120
C 2.940184 -5.956426 4.477527
H 1.910981 -2.073208 7.798412
H 4.508981 -1.747112 6.412377
H 3.242760 0.186182 7.439192
H 4.200105 0.870227 9.591041
H 6.267573 -2.573019 10.031160
H 8.144355 -2.033836 10.236268
H 10.173315 -1.156501 10.960939
H 11.215293 1.158687 9.233384
H 10.387242 1.290770 10.783079
H 12.616848 1.374096 11.056258
H 12.170203 -1.917114 9.643278
H 12.196780 -0.467806 7.970697
H 10.364538 -3.553501 9.868267
H 11.508570 -3.236378 7.323421
H 9.096951 -2.402780 7.333196
H 8.890181 -4.595636 7.883081
H 5.799210 -3.155396 7.529415
H 5.833658 -5.322971 8.632604
H 5.567908 -4.841716 10.318836
H 4.719497 -6.927472 9.438576
H 2.533957 -4.778108 8.103780
H 4.912030 -3.180745 4.282972
H 6.351060 -4.557339 5.715739
H 5.294244 -7.831125 6.628522
H 2.480445 -8.120280 5.517125
H 2.007660 -6.377521 4.118062
O 1.551680 -4.807691 -1.747060
C 2.432026 -5.501943 -1.245356
O 2.485913 -6.856849 -1.202745
C 1.840317 -7.622471 -2.230779
C 0.301026 -7.621268 -2.347692
C -0.237209 -6.519867 -3.195855
C -0.608633 -6.685194 -4.447633
O -0.597009 -7.846902 -5.158705
C -0.069731 -9.023168 -4.512300
O -0.909410 -10.110431 -4.907974
C -0.233387 -11.110982 -5.663475
O -0.894035 -12.349732 -5.363690
C -0.285544 -13.444194 -6.061403
C -0.930337 -14.722459 -5.532537
O -2.345157 -14.678659 -5.730142
C -0.501640 -13.285998 -7.577598
O 0.793215 -13.387212 -8.211775
C -1.111202 -11.915041 -7.899068
O -1.092928 -11.701706 -9.320608
C -0.338861 -10.797704 -7.180074
O 0.970505 -10.683099 -7.785072
C -0.061716 -9.001745 -2.960793
C 1.008865 -9.918548 -2.405287
C 0.643040 -11.191452 -1.726377
O 0.525889 -12.226734 -2.700684
O 2.280082 -9.920713 -3.071081
C 2.151092 -9.074173 -1.937960
C 3.666603 -4.875784 -0.669916
C 4.692725 -4.737514 -1.626696
C 4.745258 -5.868219 -2.661800
C 4.350682 -5.708188 -3.992729
C 4.481122 -6.766931 -4.910445
C 5.002947 -7.986285 -4.484047
O 5.169593 -8.990393 -5.388662
C 5.386312 -8.164021 -3.157008
O 5.899694 -9.376713 -2.806047
C 5.260638 -7.115919 -2.241435
H 2.292136 -7.351058 -3.194167
H -0.138611 -7.555500 -1.351225
H -0.361190 -5.535513 -2.725179
H -1.001832 -5.872666 -5.069795
H 0.941196 -9.132160 -4.912527
H 0.812104 -11.202215 -5.342182
H 0.781094 -13.477133 -5.811035
H -0.534722 -15.607042 -6.039154
H -0.754382 -14.830048 -4.460118
H -2.639457 -13.850876 -5.303648
H -1.121542 -14.085771 -8.001063
H 0.649705 -13.914107 -9.025983
H -2.161329 -11.896359 -7.584265
H -0.189899 -11.391187 -9.532441
H -0.823977 -9.830439 -7.347624
H 1.347320 -11.586922 -7.845889
H -1.055515 -9.308146 -2.593794
H 1.411788 -11.499061 -1.009993
H -0.306509 -11.105191 -1.187846
H 0.122077 -12.990649 -2.261810
H 2.677472 -9.302236 -1.021629
H 3.887196 -4.788742 -4.339472
H 4.179512 -6.646438 -5.938839
H 5.458150 -9.757076 -4.842158
H 6.133320 -9.352686 -1.855532
H 5.558056 -7.266290 -1.199489
O 8.672725 -1.693609 -0.790910
C 8.560020 -2.008912 -1.955864
O 9.611594 -2.444367 -2.689958
C 10.973575 -1.964170 -2.399809
C 12.010164 -3.098102 -2.246300
C 13.118932 -2.890411 -3.244445
C 14.380856 -2.675455 -2.891731
O 14.848380 -2.694010 -1.604131
C 14.002619 -3.431326 -0.698088
O 14.439619 -3.269550 0.648804
C 15.719683 -3.840384 0.885170
O 16.474939 -2.955057 1.727964
C 16.073300 -3.056599 3.094694
C 16.651092 -1.855837 3.840548
O 16.009756 -0.644385 3.418507
C 16.608950 -4.381878 3.663019
O 15.784337 -4.792709 4.763317
C 16.632178 -5.473770 2.578071
O 17.923127 -5.502477 1.922625
C 15.552733 -5.249490 1.511719
O 15.689769 -6.262167 0.498941
C 12.521288 -3.041154 -0.794101
C 12.225982 -1.661085 -0.285414
C 12.244998 -1.431354 1.188856
O 13.394255 -0.656185 1.577793
O 12.570322 -0.542596 -1.112478
C 11.231793 -1.070366 -1.216994
C 7.286969 -1.712841 -2.728745
C 7.426284 -0.461755 -3.381454
C 8.721950 -0.306566 -4.173959
C 9.514398 0.825603 -4.008664
C 10.582228 1.081059 -4.874204
C 10.899469 0.176454 -5.890718
O 11.946014 0.436126 -6.723515
C 10.118095 -0.966053 -6.066290
O 10.429168 -1.812812 -7.085149
C 9.010070 -1.204746 -5.236371
H 11.233145 -1.378034 -3.288028
H 11.556189 -4.058532 -2.437562
H 12.828617 -2.800458 -4.283026
H 15.163204 -2.374890 -3.579281
H 14.098202 -4.497204 -0.954423
H 16.285945 -3.922118 -0.047756
H 14.981791 -3.012258 3.172069
H 17.721978 -1.738408 3.630057
H 16.511565 -1.944861 4.919152
H 15.525543 -0.833034 2.589639
H 17.625353 -4.243133 4.059550
H 16.249752 -5.503718 5.232796
H 16.509696 -6.468767 3.024666
H 18.189138 -4.571799 1.757343
H 14.552214 -5.360491 1.950461
H 16.647125 -6.459018 0.450651
H 11.920692 -3.726969 -0.168610
H 12.266229 -2.359094 1.769574
H 11.355972 -0.906546 1.519544
H 13.271762 0.203439 1.145168
H 10.465075 -0.361651 -0.999558
H 9.286958 1.544209 -3.238565
H 11.154791 1.995062 -4.752378
H 12.163940 1.390983 -6.643125
H 9.728151 -2.502794 -7.157711
H 8.388104 -2.064945 -5.414437
O 4.408443 3.801156 -1.464919
C 5.599947 3.726716 -1.140349
O 6.146205 4.642826 -0.274667
C 5.386045 5.411683 0.752649
C 5.225904 4.770667 2.207705
C 6.484058 4.315863 2.944175
C 6.525467 4.156881 4.258985
O 5.484189 4.474149 5.050055
C 4.614576 5.523961 4.590121
O 4.584292 6.655114 5.491534
C 4.920137 6.378781 6.860129
O 5.074259 7.673669 7.464077
C 4.724843 7.784974 8.869463
C 3.334321 8.475033 9.005709
O 3.219946 9.419025 7.916382
C 5.007400 6.480001 9.607508
O 4.845902 6.588458 11.026618
C 4.140185 5.351744 9.084019
O 2.894352 5.371253 9.809526
C 3.910107 5.423151 7.565080
O 4.031542 4.057718 7.077882
C 4.740698 5.939944 3.086909
C 5.632923 7.088530 2.616281
C 5.552033 8.442319 3.231112
O 6.336703 8.442194 4.439973
O 6.959599 6.767291 2.189250
C 5.990901 6.767445 1.145837
C 6.626200 2.323316 -1.622945
C 7.558976 1.570022 -0.857379
C 8.483892 0.830612 0.227035
C 7.859309 -0.070520 1.126471
C 8.327463 -0.283926 2.451060
C 9.455075 0.356563 2.877726
O 9.914881 0.240943 4.154239
C 10.175738 1.134539 1.954503
O 11.335310 1.738396 2.360885
C 9.765449 1.293624 0.637276
H 4.387634 5.612267 0.348614
H 4.460846 3.981865 2.174944
H 7.444175 4.287691 2.456111
H 7.392976 3.865757 4.823088
H 3.601208 5.063057 4.671538
H 5.908260 5.919810 6.906276
H 5.433088 8.513732 9.268314
H 2.499482 7.786573 8.864979
H 3.267185 8.976764 9.967084
H 4.179138 9.512174 7.637742
H 6.061781 6.235549 9.423580
H 5.263499 5.790471 11.411233
H 4.621041 4.404461 9.364061
H 3.081384 5.795023 10.666647
H 2.861183 5.727374 7.350349
H 4.811749 4.003157 6.489922
H 3.737885 6.244713 2.779533
H 5.948191 9.203069 2.568458
H 4.520007 8.688939 3.498494
H 5.833813 7.895042 5.063736
H 6.063924 7.513124 0.386911
H 6.917933 -0.550181 0.842273
H 7.744254 -0.882794 3.162378
H 9.561053 -0.605765 4.526496
H 11.372840 1.568307 3.332428
H 10.425703 1.889213 -0.023877
O -9.013230 1.233639 -4.228066
C -9.697562 1.419468 -3.222537
O -10.924487 0.852918 -3.070052
C -10.906708 -0.531519 -3.439384
C -11.794398 -1.366310 -2.509492
C -13.157407 -0.781742 -2.190873
C -14.295652 -1.449277 -2.441906
O -14.368845 -2.743342 -2.905316
C -13.118441 -3.422851 -2.712856
O -13.129598 -4.782728 -3.177906
C -13.344304 -5.668618 -2.068279
O -13.964796 -6.877324 -2.537030
C -13.295467 -8.089748 -2.203645
C -14.165762 -9.254649 -2.690117
O -13.560477 -10.509188 -2.393296
C -13.017879 -8.212057 -0.692532
O -12.129954 -9.299118 -0.398504
C -12.419289 -6.910114 -0.141553
O -11.264893 -7.151454 0.676391
C -12.044193 -5.934450 -1.256764
O -11.470110 -4.761290 -0.646577
C -11.935006 -2.682938 -3.308642
C -12.011422 -2.205779 -4.766248
C -11.862506 -3.196041 -5.887991
O -13.033899 -3.973760 -6.047031
O -12.757789 -1.022362 -5.071241
C -11.376354 -0.862582 -4.824031
C -9.208105 2.083653 -1.929782
C -7.964324 2.644557 -1.935060
C -7.340561 3.124299 -3.247481
C -8.115817 3.900412 -4.144542
C -7.625433 4.270901 -5.402907
C -6.349694 3.904004 -5.771417
O -5.801987 4.260267 -6.984119
C -5.546765 3.181095 -4.878489
O -4.283363 2.814389 -5.228857
C -6.027134 2.840726 -3.621440
H -9.889427 -0.924886 -3.326017
H -11.282434 -1.547490 -1.556173
H -13.205264 0.242023 -1.824391
H -15.275964 -1.009670 -2.336477
H -12.973138 -3.428820 -1.640306
H -14.095452 -5.209278 -1.406090
H -12.340278 -8.146547 -2.753006
H -15.142635 -9.208244 -2.195378
H -14.343682 -9.180995 -3.765824
H -12.916738 -10.686212 -3.108367
H -13.952202 -8.402910 -0.154951
H -12.573662 -10.112293 -0.737412
H -13.161422 -6.420656 0.503889
H -11.099099 -8.111615 0.580770
H -11.252404 -6.343801 -1.899177
H -10.849129 -5.112937 0.021291
H -11.022288 -3.282117 -3.207078
H -11.682388 -2.675194 -6.833878
H -11.004891 -3.852712 -5.714076
H -13.285083 -4.323431 -5.158198
H -10.715419 -0.550191 -5.641174
H -9.128302 4.198526 -3.881003
H -8.261489 4.833441 -6.086474
H -6.422276 4.912575 -7.404658
H -4.233461 3.057905 -6.184455
H -5.338856 2.295942 -2.970968
O -3.544300 4.683964 0.712209
C -4.689733 4.788452 0.305028
O -5.039274 5.434810 -0.852867
C -3.916548 6.028293 -1.520051
C -4.013087 6.018737 -3.075043
C -5.313446 6.422801 -3.708121
C -5.408059 7.376750 -4.661106
O -4.360522 8.095927 -5.160489
C -3.077049 7.535795 -4.881792
O -2.014592 8.458954 -5.081736
C -1.629585 8.661540 -6.439239
O -2.469748 9.623870 -7.068557
C -2.154412 10.950846 -6.655160
C -3.272389 11.907529 -7.092204
O -3.140769 13.190441 -6.486394
C -0.803933 11.384605 -7.260985
O -0.282040 12.454841 -6.459941
C 0.194517 10.214302 -7.365026
O 0.197294 9.644304 -8.691744
C -0.134145 9.085020 -6.387956
O 0.710588 7.945104 -6.662696
C -2.928681 7.056013 -3.439467
C -3.043626 8.124424 -2.350432
C -2.060761 9.247406 -2.307031
O -1.891793 9.743893 -0.980898
O -4.374509 8.465099 -1.902781
C -3.682322 7.471252 -1.156267
C -5.843997 4.143970 1.016293
C -5.692087 3.970285 2.376270
C -6.717134 3.175955 3.125453
C -6.813309 1.792477 2.939650
C -7.684544 1.032402 3.721395
C -8.425368 1.643036 4.718776
O -9.233887 0.883742 5.522357
C -8.361261 3.017116 4.899405
O -9.131846 3.566171 5.888524
C -7.516848 3.793137 4.110815
H -2.994788 5.478498 -1.298921
H -3.752306 5.017984 -3.437076
H -6.205161 5.918335 -3.394240
H -6.342470 7.697032 -5.087912
H -2.932924 6.667512 -5.540662
H -1.722017 7.726198 -6.999398
H -2.102960 10.998541 -5.559510
H -3.279114 12.036815 -8.180838
H -4.253657 11.501112 -6.820754
H -2.189997 13.410192 -6.444569
H -0.960240 11.798052 -8.264387
H 0.578253 12.730940 -6.823316
H 1.222143 10.556879 -7.184320
H 0.415315 10.351800 -9.321206
H 0.121722 9.411007 -5.372866
H 0.776887 7.919865 -7.641327
H -1.938347 6.591557 -3.320733
H -1.078859 8.928701 -2.667716
H -2.403792 10.071782 -2.939526
H -1.614843 8.997072 -0.426092
H -3.379339 7.662305 -0.140390
H -6.170596 1.280756 2.221957
H -7.765769 -0.041424 3.583239
H -9.581202 1.511564 6.183139
H -9.172338 4.520969 5.748825
H -7.455647 4.860698 4.269747
O -1.815686 2.117660 1.907717
C -2.115614 2.990202 2.704021
O -1.599471 4.260566 2.743788
C -0.423796 4.584714 1.969879
C 0.408876 5.747670 2.604212
C -0.282349 6.781800 3.453348
C 0.338173 7.944010 3.668387
O 1.496897 8.280172 3.015297
C 1.323703 7.980730 1.621576
O 2.426511 8.464019 0.806845
C 2.790170 9.811546 1.206678
O 1.659154 10.670863 1.198313
C 1.932015 12.007592 1.668978
C 1.231020 12.981731 0.716205
O 1.180039 14.300843 1.248451
C 3.426765 12.371621 1.846281
O 3.835512 11.882447 3.136464
C 4.347236 11.746547 0.780562
O 4.530539 12.662480 -0.315727
C 3.804299 10.414009 0.219990
O 4.898821 9.532975 -0.056844
C 1.139307 6.449129 1.414700
C 0.266608 6.142938 0.220144
C 0.717211 6.458417 -1.162727
O 2.132099 6.480518 -1.260709
O -1.129368 6.414087 0.419508
C -0.700430 5.059743 0.572592
C -3.098706 2.794170 3.844711
C -3.031858 1.625176 4.586102
C -3.734621 1.588473 5.918532
C -3.111046 2.136048 7.056680
C -3.693890 2.078095 8.331836
C -4.903920 1.419136 8.467576
O -5.530122 1.313389 9.676321
C -5.508109 0.841718 7.360696
O -6.676822 0.148974 7.523691
C -4.948491 0.939030 6.093988
H 0.229162 3.711445 1.928240
H 1.144771 5.278838 3.272463
H -1.224518 6.580169 3.943079
H 0.022700 8.708593 4.373098
H 0.435765 8.512412 1.255710
H 3.224591 9.730247 2.201433
H 1.447029 12.080237 2.650045
H 0.207949 12.655481 0.501697
H 1.756645 13.019840 -0.244827
H 0.518090 14.292986 1.967065
H 3.550646 13.466155 1.875229
H 4.530784 12.475480 3.478550
H 5.341485 11.580185 1.200848
H 5.335439 13.172251 -0.135089
H 3.308715 10.596751 -0.741354
H 4.555894 8.870669 -0.674220
H 2.115958 5.965572 1.278683
H 0.341480 5.718432 -1.881945
H 0.345071 7.438019 -1.477970
H 2.440680 7.242784 -0.728125
H -0.999382 4.305507 -0.136628
H -2.145899 2.625780 6.976916
H -3.190783 2.542130 9.168007
H -5.036241 1.840925 10.327446
H -6.925097 0.291669 8.454501
H -5.462726 0.482495 5.255007
O -1.420929 -3.755682 4.534111
C -0.973561 -2.789219 5.132626
O -0.878800 -2.671977 6.490535
C -1.397531 -3.803991 7.214118
C -0.358059 -4.920411 7.445471
C -0.315500 -5.898327 6.326304
C -1.056214 -6.997780 6.376425
O -1.862692 -7.340728 7.414378
C -1.475857 -6.898811 8.731642
O -0.616132 -7.908731 9.296088
C -1.174079 -8.650477 10.379578
O -0.049772 -9.195570 11.092623
C -0.163699 -10.568985 11.488338
C 0.980177 -10.811948 12.479358
O 2.245531 -10.555484 11.861525
C -1.539367 -10.823082 12.117722
O -1.676976 -12.122465 12.695480
C -2.626292 -10.633773 11.043305
O -2.995703 -11.913290 10.479936
C -2.151974 -9.734856 9.889130
O -3.289319 -9.143260 9.249387
C -0.689484 -5.562556 8.800777
C -1.415140 -4.476636 9.571422
C -1.097176 -4.217223 10.999083
O -1.249941 -5.424855 11.747577
O -2.780284 -4.212201 9.204934
C -1.776258 -3.391245 8.613179
C -0.494907 -1.587352 4.380881
C 0.411375 -1.977820 3.404547
C 0.201954 -1.266536 2.130775
C -0.627844 -1.862462 1.171173
C -1.027482 -1.163560 0.024698
C -0.532358 0.118184 -0.182362
O -0.927999 0.872986 -1.248356
C 0.354534 0.683947 0.730981
O 0.892577 1.916935 0.472538
C 0.680438 0.019659 1.907353
H -2.282370 -4.206332 6.726609
H 0.616564 -4.442028 7.530494
H 0.236501 -5.640720 5.433173
H -1.172053 -7.689378 5.550854
H -2.405295 -6.807948 9.310969
H -1.685037 -7.966205 11.073722
H 0.008046 -11.213934 10.611843
H 0.988672 -11.841667 12.845410
H 0.892683 -10.125678 13.330195
H 2.146659 -9.705257 11.390707
H -1.701074 -10.077111 12.904479
H -1.249259 -12.104753 13.572678
H -3.552875 -10.251990 11.492648
H -2.848255 -12.561246 11.203202
H -1.642094 -10.358156 9.143935
H -3.824987 -9.881825 8.894390
H 0.254661 -5.757828 9.319676
H -1.776093 -3.470853 11.423614
H -0.070304 -3.863387 11.118037
H -1.148114 -5.183261 12.679427
H -1.717364 -2.340895 8.870140
H -1.024577 -2.853985 1.325446
H -1.699423 -1.612700 -0.697318
H -1.907390 0.845005 -1.223638
H 0.515970 2.157223 -0.394575
H 1.309403 0.521033 2.639422
O 1.953174 -6.683552 1.393791
C 1.501931 -5.549638 1.505615
O 0.220488 -5.213260 1.744724
C -0.795876 -6.214088 2.103735
C -1.935647 -6.340248 1.036369
C -3.042276 -5.376346 1.317869
C -4.213199 -5.764542 1.845908
O -4.584741 -7.026386 2.139767
C -3.864533 -8.098498 1.518507
O -4.591494 -8.560042 0.377782
C -5.699107 -9.439203 0.689737
O -5.875252 -10.357338 -0.403124
C -6.685415 -9.795199 -1.458529
C -6.598580 -10.761798 -2.641153
O -7.107111 -12.035769 -2.239862
C -8.150319 -9.628755 -0.978676
O -8.726252 -8.514434 -1.682443
C -8.222100 -9.363855 0.537239
O -8.334491 -10.602398 1.260581
C -6.966698 -8.612971 1.009870
O -7.073805 -8.402222 2.432260
C -2.407695 -7.827601 1.045615
C -1.340034 -8.579864 1.821397
C -1.573693 -9.961090 2.364317
O -0.374375 -10.562604 2.845009
O -0.053330 -8.432540 1.208769
C -0.338795 -7.619806 2.364972
C 2.450082 -4.373620 1.669605
C 3.579731 -4.436138 0.800879
C 4.925162 -4.583610 1.458765
C 5.823475 -3.543134 1.624244
C 7.077504 -3.782366 2.186035
C 7.432295 -5.078300 2.556686
O 8.641929 -5.289152 3.158785
C 6.561478 -6.133577 2.365848
O 6.936972 -7.378772 2.787615
C 5.312730 -5.906463 1.802045
H -1.211424 -5.838977 3.049188
H -1.526335 -6.110203 0.050000
H -2.851951 -4.318809 1.150055
H -4.980931 -5.055874 2.104384
H -3.866413 -8.886224 2.273751
H -5.413412 -10.060923 1.551396
H -6.260269 -8.832356 -1.771145
H -7.187952 -10.374791 -3.496981
H -5.561965 -10.885463 -2.964414
H -6.708647 -12.199656 -1.334192
H -8.763959 -10.515692 -1.217875
H -8.764800 -8.756066 -2.625760
H -9.111940 -8.782560 0.792215
H -8.325385 -10.340035 2.201249
H -6.930313 -7.613308 0.555463
H -6.380176 -7.760926 2.685932
H -2.331303 -8.194888 0.019038
H -2.301560 -9.952270 3.188461
H -1.969973 -10.616494 1.577290
H -0.182831 -10.154761 3.709504
H 0.171930 -7.793998 3.297119
H 5.568754 -2.528203 1.300249
H 7.799100 -2.989375 2.301275
H 8.644082 -6.243900 3.358203
H 6.133948 -7.903857 2.945216
H 4.623908 -6.736135 1.657185
O 7.889966 -4.374964 -0.463436
C 7.246626 -4.500908 -1.492740
O 7.664713 -5.217216 -2.594111
C 8.551722 -6.360358 -2.479064
C 9.397706 -6.516983 -3.792042
C 8.933554 -7.681155 -4.609546
C 9.712766 -8.746661 -4.872434
O 11.011493 -8.882282 -4.494941
C 11.710355 -7.687577 -4.130928
O 12.258088 -7.064732 -5.294202
C 13.668268 -6.867165 -5.252055
O 13.979289 -5.467434 -5.339571
C 14.320685 -4.955337 -6.641173
C 13.961713 -3.465845 -6.669987
O 14.214991 -2.875104 -7.935589
C 13.687377 -5.725806 -7.807716
O 12.249541 -5.609790 -7.786367
C 14.078549 -7.212925 -7.741935
O 13.046510 -7.995015 -8.354433
C 14.376505 -7.712067 -6.320788
O 15.801624 -7.704645 -6.093893
C 10.881323 -6.653751 -3.376879
C 10.906025 -6.819668 -1.871904
C 12.188124 -6.670932 -1.126998
O 11.993577 -6.120263 0.163983
O 10.078876 -7.838120 -1.298069
C 9.556623 -6.490485 -1.352746
C 5.941865 -3.781108 -1.749106
C 6.013524 -2.561367 -2.420014
C 4.764959 -2.207900 -3.126497
C 4.690503 -2.323790 -4.528854
C 3.489094 -2.220683 -5.221718
C 2.321417 -1.991730 -4.499103
O 1.091444 -1.954533 -5.100287
C 2.381201 -1.819938 -3.113033
O 1.249182 -1.601269 -2.402019
C 3.587991 -1.906991 -2.429669
H 7.894070 -7.231281 -2.392012
H 9.277173 -5.624554 -4.414077
H 7.910509 -7.685561 -4.978443
H 9.359550 -9.622017 -5.388273
H 12.509373 -8.046050 -3.475338
H 14.078463 -7.155670 -4.271721
H 15.412651 -5.029609 -6.741172
H 14.550809 -2.929062 -5.920735
H 12.904767 -3.324840 -6.426647
H 13.869203 -1.961345 -7.880614
H 14.014753 -5.325094 -8.769782
H 12.048005 -4.699155 -8.056259
H 14.983447 -7.356032 -8.348634
H 12.215172 -7.523751 -8.132470
H 14.053662 -8.758927 -6.229009
H 16.045260 -6.853525 -5.679783
H 11.340738 -5.683313 -3.585491
H 12.869973 -6.010292 -1.687997
H 12.703554 -7.636969 -1.013657
H 11.380929 -6.707201 0.628573
H 9.393958 -5.975055 -0.420688
H 5.588732 -2.575873 -5.102962
H 3.452239 -2.346536 -6.289520
H 1.184107 -2.266524 -6.001847
H 0.518288 -1.693110 -3.046660
H 3.585273 -1.858162 -1.344352
O 7.193625 1.554926 -5.840628
C 6.341249 0.868508 -5.287998
O 5.199036 0.422973 -5.896907
C 4.943145 1.166538 -7.129001
C 3.602841 0.952651 -7.875531
C 2.312472 0.515380 -7.282148
C 1.372675 0.033357 -8.111118
O 1.496931 -0.123987 -9.469295
C 2.753519 0.302355 -10.073641
O 2.931115 -0.430710 -11.287499
C 2.302596 0.218315 -12.401767
O 3.341157 0.721860 -13.266698
C 2.849813 1.151349 -14.540107
C 3.968048 1.888582 -15.291314
O 4.310327 3.106967 -14.622738
C 2.362702 -0.053848 -15.357055
O 1.229165 0.345406 -16.144979
C 1.966748 -1.229067 -14.454015
O 1.027741 -2.068213 -15.155388
C 1.334138 -0.747316 -13.149224
O 0.891864 -1.885442 -12.391252
C 3.899379 0.055061 -9.090283
C 5.298985 0.417991 -9.428952
C 5.689647 0.929341 -10.772613
O 5.036869 2.187167 -10.988314
O 6.270225 -0.350068 -8.716070
C 5.973902 0.957171 -8.210415
C 6.433796 0.641396 -3.753858
C 6.188505 1.824025 -3.056596
C 5.436420 2.886393 -3.838653
C 4.079400 2.745815 -4.088478
C 3.353912 3.817673 -4.675982
C 4.040743 4.995287 -4.996606
O 3.420944 6.085776 -5.512863
C 5.410995 5.094259 -4.790534
O 6.108871 6.233086 -5.092200
C 6.116946 4.056238 -4.201606
H 4.962092 2.224905 -6.861264
H 3.410230 1.972561 -8.253878
H 2.117053 0.625803 -6.228615
H 0.392785 -0.299916 -7.788234
H 2.678004 1.374551 -10.285438
H 1.714574 1.078226 -12.070368
H 2.035500 1.871693 -14.369223
H 3.677608 2.142414 -16.317913
H 4.876750 1.283984 -15.330728
H 3.549907 3.705317 -14.713891
H 3.121941 -0.393530 -16.077073
H 0.772925 -0.484800 -16.372598
H 2.841775 -1.847146 -14.238839
H 0.707182 -2.697395 -14.474422
H 0.416039 -0.196922 -13.401384
H 0.687875 -1.581576 -11.490604
H 3.891712 -1.011034 -8.793789
H 6.772695 1.107701 -10.850720
H 5.404228 0.227871 -11.568124
H 5.299454 2.488207 -11.882166
H 6.685688 1.761517 -8.310044
H 3.523021 1.867208 -3.818148
H 2.293198 3.732513 -4.850595
H 2.454757 5.985264 -5.399430
H 5.434807 6.901578 -5.364849
H 7.161563 4.193096 -3.965295
O 8.505051 4.902541 0.565251
C 8.470546 3.807114 0.003297
O 9.268119 3.517255 -1.086796
C 9.962230 4.621074 -1.669313
C 10.907395 5.453184 -0.740929
C 11.704899 4.695077 0.290105
C 13.030184 4.838901 0.362926
O 13.774959 5.734499 -0.373049
C 13.040212 6.733196 -1.105087
O 12.549806 7.749710 -0.221310
C 12.354564 9.009375 -0.862479
O 13.410651 9.864680 -0.474111
C 13.439539 11.123022 -1.177327
C 14.197749 12.079001 -0.254259
O 13.609865 12.088345 1.052268
C 12.037837 11.602965 -1.597468
O 11.970161 13.010589 -1.802702
C 10.971552 11.144629 -0.597087
O 9.681329 11.623658 -1.036784
C 10.971408 9.603466 -0.478438
O 9.943803 9.082038 -1.364156
C 11.834395 6.145494 -1.797164
C 12.069447 5.064666 -2.829675
C 13.462943 4.679830 -3.268715
O 13.434907 3.668194 -4.277062
O 11.050751 4.971612 -3.843352
C 10.917763 4.111214 -2.722452
C 7.497758 2.656942 0.243217
C 6.513124 2.433641 1.086652
C 5.325829 1.652397 1.407499
C 4.416944 1.376430 0.368257
C 3.592161 0.304069 0.418020
C 3.662562 -0.541461 1.500783
O 2.971931 -1.694899 1.446740
C 4.470532 -0.208047 2.606096
O 4.494566 -0.941374 3.731412
C 5.244953 0.942926 2.587789
H 9.202599 5.286825 -2.142871
H 10.357415 6.235546 -0.218751
H 11.167097 4.066453 1.006349
H 13.634941 4.275580 1.063134
H 13.737883 7.199067 -1.824481
H 12.383329 8.877465 -1.948142
H 14.039856 10.984655 -2.083242
H 15.227721 11.737143 -0.126060
H 14.227815 13.097907 -0.635978
H 13.611374 11.154847 1.346686
H 11.790167 11.160835 -2.572566
H 11.030296 13.254634 -1.694111
H 11.157616 11.604473 0.381978
H 9.261378 10.854505 -1.485061
H 10.671720 9.326950 0.543060
H 9.651748 8.241730 -0.971247
H 11.268110 6.946255 -2.292681
H 14.059309 4.280148 -2.442908
H 13.962707 5.553616 -3.726358
H 14.362781 3.503147 -4.545262
H 11.154618 3.058870 -2.707323
H 4.340789 1.917305 -0.543796
H 2.945555 0.091203 -0.441220
H 2.380535 -1.686356 0.669978
H 3.745592 -0.594271 4.270582
H 5.916246 1.133568 3.423459
