544
Molecule ID: homopoly_23290047
O 3.528455 -2.088305 -7.306574
C 3.827581 -1.940284 -6.127301
O 4.394327 -2.871027 -5.322448
C 4.685774 -4.136188 -5.937117
C 4.924585 -5.162208 -4.832405
O 3.673233 -5.404144 -4.169530
C 3.673361 -6.624977 -3.545950
C 4.457873 -6.823106 -2.407838
C 4.418273 -8.044569 -1.739648
C 3.585467 -9.065525 -2.199924
C 2.786894 -8.858152 -3.330320
C 2.814334 -7.636618 -4.020569
C 1.973458 -7.445736 -5.210038
C 2.536869 -7.440983 -6.496359
C 1.739587 -7.265833 -7.625249
C 0.363614 -7.108922 -7.487542
C -0.216676 -7.109235 -6.219260
C 0.585857 -7.275195 -5.089763
C 3.679245 -0.684896 -5.433282
C 3.816670 0.273148 -4.562214
H 3.845825 -4.457256 -6.564964
H 5.595069 -4.015494 -6.542939
H 5.641364 -4.774148 -4.099655
H 5.324284 -6.086261 -5.273799
H 5.083246 -6.020868 -2.028324
H 5.025037 -8.193768 -0.851631
H 3.551675 -10.013589 -1.674542
H 2.145835 -9.665989 -3.676460
H 3.603941 -7.581214 -6.618349
H 2.189813 -7.264770 -8.616211
H -0.260315 -6.987217 -8.369775
H -1.289961 -6.985061 -6.110281
H 0.124085 -7.267639 -4.103672
H 4.690569 0.170445 -3.919466
O 0.708875 4.192321 -5.653701
C 0.819766 4.078800 -4.437651
O 0.737381 5.110133 -3.559232
C 0.575452 6.413626 -4.148334
C -0.850289 6.944226 -4.005264
O -0.933481 7.643473 -2.746717
C -1.838690 8.679179 -2.713770
C -3.142807 8.513741 -3.204623
C -4.083157 9.534223 -3.067919
C -3.738484 10.712403 -2.411557
C -2.443167 10.875497 -1.912628
C -1.463314 9.871459 -2.057468
C -0.096430 10.118388 -1.543442
C 0.118365 10.561448 -0.223783
C 1.408727 10.830152 0.247463
C 2.509886 10.647020 -0.586259
C 2.319100 10.218610 -1.893192
C 1.027429 9.967716 -2.370542
C 1.006800 2.755863 -3.768300
C 0.510267 2.435183 -2.559538
H 1.256649 7.075244 -3.612591
H 0.863738 6.421917 -5.206101
H -1.043384 7.641594 -4.832060
H -1.580568 6.133130 -4.027028
H -3.449589 7.581667 -3.668338
H -5.090099 9.400171 -3.450280
H -4.469858 11.503854 -2.288694
H -2.192815 11.812802 -1.416516
H -0.721690 10.694966 0.454264
H 1.551242 11.178805 1.265244
H 3.512073 10.842325 -0.215440
H 3.176392 10.080575 -2.549895
H 0.903221 9.656169 -3.404529
H 0.574299 1.382042 -2.272054
O 4.560706 3.159778 0.261809
C 3.601824 3.274600 -0.487716
O 3.421197 4.214586 -1.465930
C 4.346861 5.328042 -1.476881
C 4.069757 6.238976 -2.684794
O 5.274465 6.845755 -3.207517
C 5.222914 7.187175 -4.548585
C 4.023783 7.575896 -5.159129
C 3.950777 7.844490 -6.529569
C 5.097891 7.770416 -7.302951
C 6.309279 7.440507 -6.707195
C 6.408761 7.158642 -5.320415
C 7.756306 6.878095 -4.781472
C 8.313753 7.697103 -3.792257
C 9.630046 7.518515 -3.356446
C 10.415470 6.506265 -3.902392
C 9.886599 5.680605 -4.887635
C 8.569096 5.863295 -5.322751
C 2.323572 2.489924 -0.362786
C 2.177561 1.152713 -0.263215
H 5.363923 4.956368 -1.491953
H 4.156415 5.904451 -0.572059
H 3.563759 5.654767 -3.453329
H 3.400336 7.046841 -2.365886
H 3.112996 7.673053 -4.582674
H 2.997362 8.101408 -6.982385
H 5.050446 7.972354 -8.372175
H 7.206296 7.431666 -7.323651
H 7.714920 8.491386 -3.354864
H 10.039008 8.154904 -2.580283
H 11.433213 6.356398 -3.546069
H 10.496789 4.888627 -5.313779
H 8.175692 5.206113 -6.096545
H 1.143281 0.822563 -0.102968
O 5.084744 -3.026372 0.736059
C 3.886967 -2.801811 0.695130
O 3.070958 -2.524496 1.733908
C 3.655134 -2.418246 3.039276
C 2.645887 -1.668924 3.908820
O 2.999667 -1.720741 5.282024
C 2.433982 -2.661402 6.101675
C 1.209298 -3.294890 5.871509
C 0.686483 -4.199672 6.796207
C 1.387654 -4.490345 7.964343
C 2.599713 -3.856021 8.214123
C 3.136901 -2.922025 7.305296
C 4.389567 -2.222088 7.640234
C 4.440406 -1.363400 8.753849
C 5.615906 -0.680009 9.077219
C 6.751693 -0.839026 8.290588
C 6.720434 -1.684834 7.184320
C 5.548864 -2.375559 6.865216
C 3.063046 -2.556938 -0.536085
C 2.651834 -3.709315 -1.123857
H 3.847332 -3.419796 3.435448
H 4.604018 -1.871291 3.005339
H 1.625916 -1.985820 3.703431
H 2.656865 -0.612563 3.612713
H 0.607022 -3.080108 4.994478
H -0.277392 -4.661376 6.613546
H 0.984525 -5.201852 8.682078
H 3.135393 -4.075495 9.138214
H 3.552548 -1.202669 9.361018
H 5.635347 -0.011758 9.934127
H 7.660611 -0.297093 8.529720
H 7.601599 -1.798476 6.560788
H 5.534654 -3.025715 5.993242
H 3.096945 -4.642574 -0.756662
O -1.583061 -7.091529 -1.051074
C -1.629317 -6.169848 -1.858711
O -2.644123 -5.916193 -2.723713
C -3.802697 -6.776875 -2.616063
C -4.642883 -6.455775 -1.360645
O -6.043720 -6.563796 -1.630061
C -6.765949 -5.400382 -1.504544
C -6.273056 -4.163987 -1.934371
C -7.044674 -3.005391 -1.854669
C -8.339761 -3.076947 -1.352197
C -8.839917 -4.304393 -0.913682
C -8.066762 -5.482954 -0.978673
C -8.647580 -6.728045 -0.447436
C -8.822570 -6.877168 0.942791
C -9.418534 -8.024951 1.466660
C -9.833400 -9.046921 0.620597
C -9.656626 -8.918907 -0.756631
C -9.063595 -7.769794 -1.285562
C -0.820202 -4.930116 -1.622937
C -1.533114 -4.159433 -0.754029
H -3.508302 -7.838725 -2.619207
H -4.401854 -6.614947 -3.520503
H -4.372465 -5.486947 -0.927182
H -4.408752 -7.182457 -0.579247
H -5.271972 -4.086478 -2.341107
H -6.647991 -2.050711 -2.193785
H -8.954498 -2.186613 -1.294583
H -9.851984 -4.353181 -0.519098
H -8.484611 -6.094733 1.616456
H -9.532935 -8.123578 2.543296
H -10.283858 -9.943689 1.036697
H -9.975766 -9.721906 -1.414790
H -8.928585 -7.692721 -2.364867
H -2.597051 -4.317116 -0.632729
O -1.471542 -1.050628 -2.842944
C -2.420755 -1.551587 -2.264269
O -3.413347 -2.290053 -2.828735
C -3.268576 -2.445561 -4.253887
C -4.374280 -3.322895 -4.832871
O -4.212853 -3.423796 -6.249068
C -4.867203 -4.455439 -6.880635
C -5.896307 -5.206903 -6.289077
C -6.490573 -6.263926 -6.977873
C -6.082618 -6.574658 -8.266145
C -5.087607 -5.816813 -8.879642
C -4.474218 -4.743447 -8.204857
C -3.441654 -3.983610 -8.921286
C -2.080237 -4.223961 -8.683640
C -1.097734 -3.538980 -9.395197
C -1.457849 -2.588655 -10.348339
C -2.803268 -2.338998 -10.601298
C -3.788840 -3.033793 -9.898332
C -2.597197 -1.448138 -0.780713
C -3.744432 -0.929709 -0.306902
H -2.309932 -2.920232 -4.469800
H -3.294430 -1.458197 -4.729195
H -5.354774 -2.886341 -4.606962
H -4.303955 -4.308920 -4.367784
H -6.264429 -4.984118 -5.294329
H -7.278332 -6.847517 -6.504495
H -6.539213 -7.400215 -8.807399
H -4.778948 -6.059587 -9.894081
H -1.787105 -4.950609 -7.931889
H -0.045957 -3.720801 -9.183471
H -0.689164 -2.032668 -10.877804
H -3.084101 -1.593414 -11.341290
H -4.835421 -2.831200 -10.112872
H -4.542556 -0.621394 -0.983072
O -1.029591 1.231947 2.320129
C -1.921036 1.340367 3.164901
O -1.719391 1.448178 4.502090
C -0.362933 1.354776 4.978662
C 0.266910 2.742499 5.090785
O 1.580090 2.689102 5.639267
C 1.769910 2.717545 6.997883
C 0.732832 2.802372 7.939322
C 1.009162 2.843943 9.309054
C 2.323211 2.786341 9.756406
C 3.361063 2.695671 8.832457
C 3.115590 2.662025 7.443631
C 4.266425 2.558682 6.519048
C 4.348880 1.519720 5.579547
C 5.432220 1.413498 4.703673
C 6.472585 2.336715 4.768683
C 6.424872 3.365887 5.704868
C 5.332489 3.475719 6.571334
C -3.398099 1.184083 2.820411
C -4.281778 1.563853 3.759571
H 0.243523 0.694518 4.348175
H -0.402915 0.876775 5.965555
H 0.361610 3.157438 4.083631
H -0.379062 3.455292 5.617168
H -0.309029 2.841950 7.641292
H 0.197476 2.921783 10.026198
H 2.542287 2.814361 10.820541
H 4.385117 2.635771 9.198726
H 3.556032 0.780392 5.527954
H 5.462596 0.611341 3.972382
H 7.308711 2.257272 4.080807
H 7.239796 4.086140 5.761062
H 5.310525 4.294962 7.288672
H -3.835634 2.070036 4.622075
O -6.357756 0.842583 -0.164249
C -6.491024 1.629027 0.758575
O -6.160268 2.939912 0.723864
C -5.974855 3.486808 -0.602493
C -7.352652 3.849898 -1.155398
O -7.243142 4.500273 -2.417995
C -8.423664 4.765067 -3.082539
C -9.693943 4.493178 -2.548247
C -10.853397 4.777325 -3.270238
C -10.760208 5.341785 -4.534846
C -9.505350 5.626487 -5.073760
C -8.318366 5.354601 -4.363453
C -7.027730 5.698456 -4.996746
C -6.033425 4.729921 -5.207520
C -4.825091 5.056701 -5.825476
C -4.591516 6.357908 -6.263427
C -5.566135 7.335577 -6.077680
C -6.770066 7.007262 -5.450315
C -7.297327 1.335859 1.962268
C -8.578904 1.065690 1.610385
H -5.346924 4.380323 -0.514356
H -5.435893 2.798783 -1.263188
H -7.853662 4.511515 -0.434856
H -7.938716 2.927055 -1.245999
H -9.822638 4.066170 -1.561036
H -11.827806 4.559021 -2.842201
H -11.661754 5.563524 -5.101429
H -9.455886 6.058801 -6.071557
H -6.206669 3.704991 -4.893093
H -4.071454 4.288341 -5.973667
H -3.652436 6.609241 -6.751454
H -5.393182 8.350086 -6.426700
H -7.521388 7.785128 -5.315322
H -8.856009 1.046458 0.556906
O 3.788693 3.824001 -4.878566
C 4.022660 2.744630 -4.347096
O 5.138047 2.426841 -3.633279
C 6.213130 3.366719 -3.691799
C 7.147792 3.193725 -2.494469
O 7.725230 4.469391 -2.180303
C 8.802267 4.444027 -1.337114
C 9.958561 3.739396 -1.695092
C 11.123570 3.852501 -0.931888
C 11.140164 4.666155 0.196456
C 9.993659 5.372674 0.553806
C 8.809358 5.284095 -0.204145
C 7.650183 6.078919 0.225422
C 6.740492 5.577669 1.166534
C 5.674637 6.360761 1.620559
C 5.494167 7.651424 1.130242
C 6.395125 8.169652 0.204238
C 7.468093 7.390454 -0.232486
C 3.126227 1.549481 -4.471906
C 1.776644 1.658399 -4.395574
H 6.786321 3.168256 -4.604649
H 5.854211 4.399042 -3.785982
H 7.900688 2.435839 -2.747350
H 6.590013 2.835275 -1.621017
H 9.979582 3.146936 -2.601586
H 12.023276 3.325419 -1.235921
H 12.044063 4.760773 0.791488
H 10.021180 6.021124 1.427969
H 6.842635 4.557462 1.535936
H 4.969099 5.939332 2.333046
H 4.645587 8.245919 1.451257
H 6.264849 9.179708 -0.180839
H 8.168720 7.817640 -0.945405
H 1.176696 0.757067 -4.511042
O -1.978446 3.972818 -2.130858
C -1.042444 4.100475 -1.353344
O -0.992481 4.960805 -0.309821
C -2.072724 5.894052 -0.177060
C -1.522812 7.152615 0.488024
O -1.325272 6.887744 1.888682
C -1.902915 7.802753 2.732927
C -3.250755 8.167017 2.603555
C -3.826980 9.055581 3.506807
C -3.069430 9.576534 4.553035
C -1.729886 9.204452 4.690984
C -1.130681 8.302213 3.795026
C 0.274797 7.922933 4.002662
C 0.613376 6.703915 4.605855
C 1.950475 6.353565 4.808402
C 2.967207 7.219737 4.415412
C 2.646504 8.437734 3.820925
C 1.310064 8.788143 3.618342
C 0.213837 3.292642 -1.418694
C 1.086018 3.292773 -0.385407
H -2.846701 5.433801 0.436349
H -2.493732 6.147196 -1.153092
H -2.186842 8.000076 0.304834
H -0.540177 7.398428 0.074039
H -3.866350 7.743895 1.818042
H -4.874168 9.323842 3.408049
H -3.522315 10.263125 5.266962
H -1.154233 9.607956 5.525264
H -0.170406 6.014137 4.914895
H 2.202468 5.401912 5.274162
H 4.004759 6.937238 4.562359
H 3.437856 9.113236 3.513025
H 1.074131 9.737781 3.145356
H 0.951970 3.910641 0.501114
O 4.865504 0.371523 1.166302
C 4.485662 0.057274 0.046175
O 5.251975 -0.289616 -1.019640
C 6.672966 -0.322801 -0.783849
C 7.267851 -1.636629 -1.291731
O 7.322240 -1.624584 -2.727995
C 8.323213 -2.409321 -3.253296
C 8.678177 -3.641377 -2.692064
C 9.747190 -4.369159 -3.209291
C 10.457214 -3.882417 -4.303073
C 10.074933 -2.679288 -4.896231
C 8.987653 -1.936589 -4.400555
C 8.575618 -0.713026 -5.108503
C 9.370190 0.440368 -5.109822
C 8.994133 1.559473 -5.864639
C 7.813531 1.544719 -6.600536
C 7.006511 0.412915 -6.595376
C 7.388537 -0.708999 -5.854156
C 3.051896 -0.010741 -0.338299
C 2.485714 -1.212588 -0.671492
H 7.120771 0.519876 -1.320490
H 6.916779 -0.224853 0.278109
H 8.278788 -1.722437 -0.871892
H 6.654568 -2.487468 -0.990260
H 8.132910 -4.045932 -1.850881
H 10.034373 -5.314502 -2.755009
H 11.305064 -4.433140 -4.699568
H 10.623223 -2.315921 -5.760467
H 10.289365 0.469596 -4.535655
H 9.618816 2.448029 -5.858909
H 7.516539 2.417975 -7.183187
H 6.078265 0.396741 -7.160536
H 6.757183 -1.591548 -5.866649
H 1.462010 -1.217085 -1.015304
O 1.903806 -2.068484 -3.436466
C 1.245413 -3.072818 -3.197630
O 0.404814 -3.665769 -4.079698
C 0.521759 -3.275255 -5.472914
C 0.186730 -1.810481 -5.770159
O 0.105775 -1.585032 -7.191407
C -0.645040 -0.453063 -7.439323
C -2.033861 -0.547931 -7.291964
C -2.845058 0.567026 -7.451379
C -2.272461 1.791089 -7.779250
C -0.898915 1.869751 -8.004469
C -0.050801 0.747530 -7.881487
C 1.374075 0.884124 -8.262918
C 1.976181 -0.003244 -9.165107
C 3.295091 0.189044 -9.596639
C 4.041744 1.263287 -9.125876
C 3.469838 2.158536 -8.233182
C 2.143207 1.973391 -7.825640
C 1.471415 -3.929408 -1.989277
C 0.628474 -4.922110 -1.586355
H 1.532071 -3.516093 -5.820040
H -0.149825 -3.926977 -6.041084
H -0.729857 -1.531478 -5.245779
H 0.974284 -1.163866 -5.388172
H -2.480522 -1.506745 -7.052908
H -3.920824 0.481972 -7.322494
H -2.895451 2.675065 -7.901161
H -0.483545 2.828259 -8.316630
H 1.417718 -0.852115 -9.548115
H 3.731755 -0.515967 -10.295549
H 5.064110 1.410097 -9.461272
H 4.029860 3.008934 -7.853045
H 1.712458 2.706976 -7.150018
H 1.006466 -5.645896 -0.867299
O -0.353529 -2.861024 2.449151
C -0.291158 -3.506758 1.411744
O 0.381976 -4.675518 1.254936
C 1.016247 -5.188527 2.437939
C 1.847315 -6.427566 2.081068
O 3.244057 -6.236472 2.349545
C 3.714849 -6.536387 3.604917
C 2.889390 -6.714250 4.724136
C 3.430233 -6.992784 5.981723
C 4.807090 -7.078556 6.146136
C 5.637636 -6.909268 5.042268
C 5.114185 -6.634778 3.760816
C 6.065617 -6.495945 2.645662
C 6.661264 -5.263878 2.354047
C 7.631845 -5.154974 1.352774
C 8.018849 -6.282987 0.630369
C 7.432561 -7.513912 0.906194
C 6.455720 -7.620535 1.900676
C -1.049240 -3.136775 0.161179
C -1.518496 -1.876696 0.104819
H 0.225444 -5.475254 3.136540
H 1.643649 -4.416724 2.888029
H 1.474884 -7.326752 2.583306
H 1.772599 -6.644039 1.011756
H 1.811498 -6.628313 4.664284
H 2.781345 -7.115282 6.842140
H 5.235713 -7.275746 7.123389
H 6.717261 -6.989580 5.174097
H 6.379294 -4.369788 2.909114
H 8.077817 -4.187674 1.138103
H 8.777472 -6.200578 -0.141910
H 7.734451 -8.398667 0.351405
H 6.010920 -8.588176 2.115468
H -1.222934 -1.158192 0.872770
O -4.594765 -1.566508 3.252773
C -4.385734 -1.730267 2.056770
O -4.527594 -2.908980 1.393483
C -5.073992 -3.995573 2.173132
C -4.003425 -4.686583 3.026842
O -3.795052 -6.024299 2.547654
C -2.973334 -6.836933 3.297386
C -2.199822 -6.379610 4.376385
C -1.336136 -7.239291 5.062256
C -1.225205 -8.568004 4.672035
C -2.000631 -9.042104 3.622332
C -2.898162 -8.198446 2.925684
C -3.737878 -8.809991 1.881749
C -3.157913 -9.408567 0.749096
C -3.944197 -10.077063 -0.193816
C -5.322274 -10.160999 -0.019374
C -5.913092 -9.572647 1.097325
C -5.129503 -8.896435 2.034871
C -3.968153 -0.637112 1.117373
C -3.629379 0.607598 1.513478
H -5.884116 -3.612628 2.803721
H -5.528356 -4.695533 1.463998
H -4.374359 -4.732042 4.054964
H -3.063288 -4.128531 2.988353
H -2.234783 -5.345807 4.708884
H -0.743064 -6.874921 5.897111
H -0.547844 -9.241492 5.192222
H -1.931892 -10.093033 3.346933
H -2.081393 -9.352724 0.595658
H -3.473639 -10.533216 -1.059942
H -5.935005 -10.682506 -0.746170
H -6.985958 -9.642764 1.238388
H -5.609191 -8.455183 2.908059
H -3.288452 1.298850 0.734848
O -6.948875 2.127690 6.013204
C -6.032814 1.479076 5.535362
O -5.143387 0.731784 6.242829
C -5.315703 0.832774 7.671212
C -4.350290 -0.123598 8.367116
O -4.944451 -1.419201 8.352883
C -4.127832 -2.505948 8.513905
C -2.892773 -2.457519 9.177697
C -2.138404 -3.618911 9.335090
C -2.607041 -4.832965 8.840541
C -3.846890 -4.890425 8.194235
C -4.627522 -3.731612 8.029365
C -5.958236 -3.817797 7.394610
C -6.240579 -3.132942 6.201550
C -7.524944 -3.147116 5.652735
C -8.544924 -3.854235 6.282278
C -8.280163 -4.554896 7.455219
C -6.995131 -4.539041 8.004419
C -5.698098 1.428842 4.045128
C -6.848957 1.354380 3.339836
H -6.351743 0.585704 7.931725
H -5.082390 1.866718 7.960812
H -3.378357 -0.122940 7.851774
H -4.223940 0.185704 9.414472
H -2.519022 -1.533958 9.604095
H -1.179911 -3.570495 9.854075
H -2.017798 -5.734294 8.967382
H -4.204337 -5.847926 7.824960
H -5.463952 -2.546711 5.712275
H -7.733175 -2.581024 4.746026
H -9.551232 -3.849900 5.868910
H -9.074512 -5.102807 7.957059
H -6.814796 -5.061525 8.941897
H -7.722742 1.275152 3.990551
O -11.181114 1.273047 4.268438
C -10.322209 1.632291 3.463919
O -9.860677 2.904694 3.340801
C -10.484764 3.803225 4.281231
C -9.971311 5.231661 4.126294
O -8.875097 5.473478 5.011610
C -7.582973 5.436114 4.579772
C -7.186123 5.198616 3.260344
C -5.827066 5.197216 2.916571
C -4.851221 5.392021 3.884367
C -5.234250 5.633594 5.199490
C -6.594062 5.668513 5.569344
C -6.931573 5.958338 6.977232
C -6.522588 5.093218 8.001099
C -6.794454 5.379695 9.345083
C -7.496545 6.538317 9.676150
C -7.920292 7.402204 8.671290
C -7.640382 7.115511 7.331859
C -9.689067 0.703643 2.481187
C -10.160215 -0.504758 2.382546
H -11.561447 3.797920 4.069143
H -10.311713 3.445971 5.302384
H -9.775517 5.505804 3.089815
H -10.764568 5.906795 4.477986
H -7.896968 5.009442 2.469760
H -5.528999 5.040621 1.886617
H -3.801373 5.386130 3.612194
H -4.461159 5.825559 5.942353
H -5.989189 4.179588 7.753385
H -6.464532 4.699781 10.122517
H -7.711809 6.761443 10.715695
H -8.467522 8.307230 8.928882
H -7.975164 7.803440 6.559799
H -10.595410 -1.476466 2.346443
