1072
Molecule ID: homopoly_108956
C 17.462716 -6.648283 0.816293
C 16.750805 -6.773512 1.942368
C 15.953492 -7.981422 2.294685
O 15.364015 -8.049588 3.390156
O 16.017038 -8.892497 1.318867
C 15.314453 -10.131575 1.496376
C 13.989429 -10.163967 0.665162
C 12.885170 -9.392440 1.422072
O 13.067656 -7.978529 1.294681
C 11.940016 -7.311949 0.741893
C 11.081629 -6.630494 1.808049
C 10.409627 -7.643258 2.800768
O 11.313980 -8.311855 3.656013
C 11.934449 -5.672512 2.675933
O 12.914069 -4.875755 1.986102
C 13.680869 -4.183659 2.882631
O 13.510163 -4.157807 4.088939
C 14.754052 -3.363966 2.280772
C 15.348801 -3.575237 1.102297
C 9.863491 -5.960737 1.110532
O 10.080488 -4.937221 0.132246
C 8.876525 -4.617530 -0.479083
O 7.869086 -5.299131 -0.478168
C 8.832183 -3.294276 -1.061707
C 8.833047 -2.029886 -1.327163
C 14.243933 -9.536569 -0.720713
O 13.034598 -9.245883 -1.440493
C 12.807671 -9.947245 -2.574151
O 13.451905 -10.891827 -2.998843
C 11.632205 -9.352431 -3.237872
C 11.077927 -9.935624 -4.307158
C 13.569086 -11.662304 0.576059
O 12.427296 -11.890660 -0.263886
C 11.249969 -12.192376 0.332971
O 11.012403 -12.154595 1.530656
C 10.217545 -12.568927 -0.656126
C 10.454512 -12.826409 -1.949759
H 17.524949 -7.439050 0.062367
H 18.041502 -5.745276 0.599020
H 16.720167 -5.977063 2.664738
H 15.146765 -10.351237 2.560793
H 15.991787 -10.901378 1.112648
H 11.887117 -9.696847 1.087138
H 12.929161 -9.649194 2.485329
H 11.343582 -7.985996 0.112471
H 12.341648 -6.560776 0.047555
H 9.839021 -8.406151 2.264024
H 9.699565 -7.096775 3.441676
H 10.847475 -8.483962 4.495657
H 11.252216 -4.998983 3.207725
H 12.479094 -6.261936 3.426679
H 15.084459 -2.555215 2.923538
H 16.144513 -2.917994 0.771040
H 15.078225 -4.399630 0.449641
H 9.274524 -5.482509 1.897374
H 9.264464 -6.775492 0.670017
H 9.056510 -1.349383 -0.511556
H 14.730409 -8.553180 -0.617918
H 14.933409 -10.143725 -1.314302
H 11.253767 -8.424481 -2.835236
H 11.466764 -10.873807 -4.691807
H 10.224462 -9.489118 -4.813089
H 13.411944 -12.084385 1.572366
H 14.381806 -12.234919 0.121354
H 9.219302 -12.664509 -0.254412
H 9.648891 -13.120344 -2.615303
H 11.446197 -12.766524 -2.384721
C 5.615419 0.842598 -11.882229
C 4.998732 0.804929 -10.692556
C 5.063540 -0.376025 -9.812508
O 5.502045 -1.468898 -10.099393
O 4.552317 0.018170 -8.624270
C 4.439571 -0.967900 -7.584680
C 4.047855 -0.260831 -6.266634
C 3.348137 -1.248244 -5.310798
O 4.251049 -2.186852 -4.701562
C 3.493429 -3.268326 -4.146359
C 4.250829 -4.189793 -3.160490
C 3.329180 -5.400427 -2.926195
O 2.966155 -6.051240 -4.135222
C 5.609945 -4.627270 -3.753359
O 6.270405 -5.642227 -2.960384
C 6.077166 -6.928867 -3.342623
O 5.352468 -7.301154 -4.257342
C 6.802541 -7.846405 -2.443208
C 6.525982 -9.157829 -2.422889
C 4.421079 -3.498142 -1.780677
O 5.363565 -2.423128 -1.817405
C 5.070298 -1.307811 -1.082400
O 4.019483 -1.075534 -0.524623
C 6.270737 -0.392734 -1.103455
C 6.483211 0.571220 -0.157363
C 5.315462 0.297531 -5.579696
O 6.085801 1.059440 -6.518367
C 7.054839 1.821698 -5.975670
O 7.300636 1.951519 -4.776844
C 7.849906 2.504033 -7.007602
C 7.719236 2.329213 -8.329218
C 3.081434 0.922864 -6.561205
O 2.058372 0.596034 -7.508510
C 0.857470 0.205438 -7.042551
O 0.557733 0.007897 -5.862892
C -0.017018 0.001759 -8.199963
C -1.328387 -0.181213 -8.050511
H 6.184832 -0.002372 -12.250265
H 5.554804 1.732003 -12.497925
H 4.433348 1.656406 -10.333200
H 3.680689 -1.695454 -7.891511
H 5.391065 -1.488415 -7.469219
H 2.563789 -1.787210 -5.857291
H 2.864345 -0.702640 -4.491221
H 2.609855 -2.865745 -3.631461
H 3.119669 -3.841280 -5.002139
H 3.773292 -6.138859 -2.251557
H 2.392792 -5.062807 -2.473742
H 3.686060 -6.686485 -4.365066
H 6.302243 -3.778782 -3.782706
H 5.508791 -4.972204 -4.788407
H 7.554480 -7.419650 -1.796225
H 7.050353 -9.833583 -1.754248
H 5.750245 -9.581150 -3.057591
H 3.438414 -3.159644 -1.427281
H 4.797240 -4.222688 -1.047473
H 7.323184 1.244367 -0.347177
H 5.955831 -0.513113 -5.213711
H 5.031336 0.938488 -4.734052
H 8.588647 3.195040 -6.614198
H 7.005995 1.641377 -8.765134
H 8.340922 2.880880 -9.022882
H 2.630183 1.286891 -5.636564
H 3.631207 1.762690 -6.996367
H 0.439518 0.019948 -9.186239
H -1.996348 -0.359266 -8.888487
H -1.772288 -0.194311 -7.061431
C -0.855108 6.411068 14.664685
C -0.387657 6.990164 13.548903
C 0.024828 6.146963 12.416981
O -0.160549 4.941230 12.343295
O 0.646700 6.926190 11.496486
C 1.305069 6.197396 10.442448
C 1.752353 7.144975 9.312527
C 2.326077 6.249819 8.175262
O 2.865359 7.022579 7.096217
C 3.345333 6.214534 6.000742
C 4.850313 6.418288 5.695411
C 5.272163 7.913406 5.797070
O 4.924087 8.558216 7.009799
C 5.705023 5.533933 6.640405
O 5.455287 5.744654 8.033607
C 6.418550 6.410183 8.715062
O 7.438068 6.902012 8.258172
C 6.033011 6.411520 10.139178
C 6.684403 7.173280 11.026947
C 5.205784 5.997730 4.244807
O 4.668122 4.727464 3.837332
C 5.119183 4.359338 2.604134
O 5.915226 5.023258 1.931149
C 4.581984 3.056531 2.125932
C 3.259314 2.755050 2.178240
C 0.544517 7.943334 8.715930
O -0.511193 7.027511 8.294452
C -1.783046 7.349813 8.736843
O -2.022348 8.375695 9.385608
C -2.733085 6.156486 8.762851
C -2.179993 5.136216 9.558831
C 2.838838 8.142115 9.823921
O 3.275288 7.877701 11.176990
C 2.849788 8.746329 12.129155
O 2.163885 9.734357 11.949725
C 3.280529 8.349934 13.486663
C 3.732361 7.145449 13.852698
H -1.155730 6.993502 15.528011
H -0.932835 5.328418 14.737116
H -0.301126 8.064953 13.453161
H 0.632014 5.428218 10.063956
H 2.163371 5.669557 10.877054
H 3.110632 5.597788 8.568327
H 1.523601 5.628893 7.770306
H 2.746754 6.533317 5.140705
H 3.107674 5.156541 6.155737
H 4.801986 8.490367 4.993861
H 6.353546 8.014950 5.669104
H 3.964759 8.393746 7.128211
H 5.468897 4.484198 6.464095
H 6.771910 5.624973 6.408640
H 5.197054 5.788546 10.433456
H 6.392350 7.184293 12.072087
H 7.508726 7.813302 10.725140
H 6.298163 5.970029 4.138536
H 4.836078 6.765093 3.551351
H 3.000732 1.764095 1.810507
H 0.215338 8.718818 9.447271
H 0.886775 8.453947 7.804673
H -3.799117 6.388691 8.890651
H -1.236993 4.528106 9.584957
H -1.685560 5.677258 10.437918
H 2.497425 9.178392 9.723255
H 3.755465 8.059637 9.227345
H 3.152983 9.134247 14.225241
H 4.008420 6.958037 14.879537
H 3.843218 6.319619 13.162202
C 5.699043 12.616698 1.297086
C 6.004462 11.638090 0.433263
C 5.585796 10.265453 0.720564
O 5.089165 9.887422 1.780641
O 5.763570 9.504803 -0.389783
C 5.250444 8.185008 -0.229938
C 5.460658 7.290016 -1.471783
C 5.024816 5.858673 -0.996569
O 4.316587 5.050104 -1.951486
C 3.187113 4.371203 -1.319980
C 2.656028 3.141184 -2.087677
C 3.750499 2.046674 -2.170885
O 5.058940 2.478121 -2.511249
C 2.177604 3.541032 -3.526721
O 2.702871 4.798716 -4.010546
C 3.573335 4.745745 -5.044512
O 4.033424 3.746801 -5.585079
C 3.729789 6.138941 -5.524729
C 4.662780 6.518654 -6.402865
C 1.400750 2.478033 -1.419546
O 1.480202 2.225398 -0.015805
C 0.395168 1.592108 0.523193
O -0.482112 1.041994 -0.146034
C 0.298950 1.722449 2.012583
C -0.665029 1.101441 2.739995
C 4.601021 7.771333 -2.665435
O 4.184108 9.149190 -2.596917
C 4.964157 10.077860 -3.213026
O 5.981094 9.876413 -3.849258
C 4.364463 11.410238 -2.935450
C 5.004497 12.550725 -3.222071
C 6.979212 7.334045 -1.826868
O 7.764758 6.907429 -0.665419
C 8.549030 7.860344 -0.060856
O 8.892773 8.948497 -0.498705
C 8.800621 7.450341 1.314227
C 9.790077 7.981570 2.076089
H 5.146441 12.400071 2.207760
H 5.997877 13.643056 1.106759
H 6.542764 11.809137 -0.486005
H 4.180025 8.277550 -0.062443
H 5.694374 7.730353 0.660945
H 5.885045 5.274700 -0.651392
H 4.370598 5.995713 -0.126222
H 2.386198 5.110727 -1.213155
H 3.501275 4.032732 -0.334060
H 3.463078 1.274984 -2.886442
H 3.815882 1.557441 -1.206123
H 5.044135 3.407611 -2.813746
H 1.092992 3.727183 -3.521251
H 2.332537 2.752799 -4.253926
H 3.024130 6.867983 -5.139268
H 4.724073 7.552126 -6.731202
H 5.392100 5.818743 -6.804452
H 1.212989 1.531545 -1.934911
H 0.546648 3.152972 -1.599156
H -0.729796 1.369917 3.795841
H 3.649283 7.247560 -2.674335
H 5.085233 7.579012 -3.621644
H 3.379413 11.425878 -2.478041
H 5.994627 12.539407 -3.667186
H 4.560740 13.514964 -3.006465
H 7.291482 8.356030 -2.139931
H 7.224965 6.645173 -2.658815
H 8.107128 6.727802 1.741931
H 10.548041 8.649906 1.687732
H 9.831555 7.692108 3.137364
C -9.452121 11.204628 4.423064
C -9.715926 10.076083 5.094492
C -8.606395 9.266481 5.606739
O -7.434615 9.587802 5.564218
O -9.112015 8.094807 6.079283
C -8.089637 7.150317 6.409812
C -8.685651 5.747108 6.671940
C -7.515576 4.745736 6.543233
O -7.966283 3.400330 6.703484
C -7.273822 2.476653 5.851065
C -6.842936 1.194958 6.603615
C -5.473144 1.415981 7.291603
O -5.511352 2.483082 8.227902
C -7.919222 0.869110 7.660954
O -7.614396 -0.331666 8.377401
C -8.560612 -0.646916 9.297453
O -9.652718 -0.103354 9.429003
C -8.139782 -1.753948 10.169939
C -6.999736 -2.439552 10.019160
C -6.704360 -0.007882 5.629444
O -6.169933 0.329368 4.320522
C -4.834342 0.202172 4.129961
O -4.038576 -0.079479 5.002118
C -4.393668 0.544002 2.737705
C -5.101456 0.468717 1.572961
C -9.288680 5.697608 8.103872
O -10.315329 6.703789 8.209314
C -10.602803 7.158793 9.445405
O -10.141318 6.753022 10.510436
C -11.563318 8.265071 9.303690
C -12.060461 8.893616 10.377944
C -9.820612 5.424727 5.663100
O -9.385758 5.638139 4.312043
C -10.411879 5.793292 3.432196
O -11.608864 5.705498 3.674261
C -9.854332 6.105173 2.117365
C -10.638073 6.430962 1.078208
H -8.425803 11.524237 4.257390
H -10.248263 11.820685 4.020691
H -10.723417 9.720125 5.260507
H -7.554094 7.513903 7.296891
H -7.379530 7.096231 5.572092
H -6.759387 4.942104 7.319087
H -7.019115 4.890005 5.572373
H -6.401954 2.936972 5.385733
H -7.971999 2.235242 5.048295
H -4.698594 1.666652 6.562756
H -5.143245 0.514998 7.818124
H -4.646595 2.488259 8.702128
H -8.886741 0.741447 7.156509
H -8.013209 1.687246 8.386166
H -8.835934 -2.003308 10.961171
H -6.759096 -3.273192 10.670079
H -6.298314 -2.236871 9.216097
H -7.706482 -0.398720 5.411522
H -6.147520 -0.845836 6.058308
H -4.563568 0.772551 0.687824
H -8.506391 5.877779 8.850651
H -9.753413 4.725373 8.302715
H -11.855845 8.545941 8.302387
H -11.766381 8.599511 11.382132
H -12.772875 9.706773 10.272799
H -10.142737 4.379684 5.761714
H -10.697676 6.060090 5.868350
H -8.776697 6.078900 2.008658
H -11.722299 6.451630 1.183439
H -10.226087 6.650957 0.108086
C -0.046351 7.670336 -3.415203
C -0.664241 8.596525 -2.668955
C -2.093757 8.644419 -2.321330
O -2.509357 9.564228 -1.604754
O -2.817335 7.641598 -2.862028
C -4.219488 7.659455 -2.516713
C -5.144055 8.180896 -3.663308
C -5.956688 7.020975 -4.287818
O -6.578248 6.164678 -3.330022
C -7.001922 4.955275 -3.985197
C -7.742293 3.980523 -3.049865
C -8.051863 2.686237 -3.862733
O -8.768558 2.926052 -5.063758
C -9.113785 4.577434 -2.592630
O -9.080064 5.955069 -2.186015
C -9.474861 6.842790 -3.145256
O -9.754427 6.591748 -4.306650
C -9.489771 8.203193 -2.575007
C -9.802341 9.260771 -3.337971
C -6.838616 3.684588 -1.807522
O -6.113211 2.425265 -1.853220
C -6.873105 1.396880 -1.391526
O -8.066616 1.447333 -1.167650
C -6.111787 0.088082 -1.105683
C -5.103576 -0.388028 -1.861366
C -6.100977 9.232872 -3.064022
O -5.317385 10.331366 -2.574602
C -5.944812 11.505951 -2.401791
O -7.145840 11.726335 -2.470323
C -4.907596 12.527087 -2.155628
C -5.199148 13.825864 -2.227982
C -4.378271 8.788167 -4.871808
O -3.605646 9.947772 -4.579008
C -2.654734 10.188294 -5.522618
O -2.424925 9.510425 -6.514437
C -1.921620 11.404426 -5.157857
C -0.916783 11.824735 -5.942809
H 1.010347 7.762185 -3.633175
H -0.557582 6.809218 -3.828859
H -0.101129 9.439739 -2.274734
H -4.375289 8.229678 -1.589570
H -4.476246 6.632775 -2.238130
H -6.732342 7.419223 -4.953620
H -5.284534 6.417959 -4.912963
H -6.115391 4.450592 -4.385431
H -7.625531 5.229886 -4.843936
H -8.695832 2.015786 -3.288902
H -7.135024 2.147095 -4.130484
H -8.130860 3.242466 -5.743039
H -9.490127 4.016629 -1.728214
H -9.883195 4.447048 -3.367663
H -9.217415 8.319682 -1.536000
H -10.060666 9.147398 -4.387610
H -9.786843 10.270550 -2.935867
H -6.067810 4.444072 -1.655876
H -7.413802 3.708219 -0.870560
H -4.850431 0.242637 -2.710101
H -6.807982 9.585202 -3.832927
H -6.664605 8.812100 -2.217891
H -3.885935 12.163146 -2.005967
H -6.211557 14.155133 -2.419760
H -4.426090 14.578688 -2.081297
H -3.719691 8.012703 -5.277423
H -5.089297 9.071821 -5.658673
H -2.210898 11.932327 -4.259693
H -0.649369 11.269469 -6.838540
H -0.345713 12.712281 -5.709816
C 0.274006 -5.339708 11.636202
C 0.721169 -4.824434 10.484441
C -0.128254 -4.791606 9.279705
O -1.306487 -5.104223 9.242709
O 0.641701 -4.348049 8.260208
C 0.034454 -4.182694 6.974476
C 0.575862 -5.137731 5.871208
C 0.249688 -4.436508 4.524183
O 0.651181 -5.168860 3.357169
C 0.353974 -4.385903 2.179987
C 0.570508 -5.116563 0.841476
C 2.047654 -5.591867 0.845996
O 2.323475 -6.394803 -0.299418
C -0.362715 -6.343169 0.727857
O 0.158067 -7.396951 1.564231
C -0.704891 -8.259588 2.129171
O -1.918921 -8.287276 1.991524
C 0.105158 -9.203875 2.927894
C -0.383344 -10.369289 3.364832
C 0.379282 -4.136660 -0.368558
O -0.897984 -3.442260 -0.567303
C -0.736529 -2.176483 -1.108812
O 0.359763 -1.624459 -1.153747
C -1.990806 -1.530709 -1.754220
C -1.610039 -0.438907 -2.448103
C 2.104895 -5.337688 5.988493
O 2.474020 -5.866903 7.269187
C 3.806146 -5.952737 7.493989
O 4.697596 -5.695460 6.708677
C 4.014010 -6.340877 8.903226
C 5.249508 -6.361291 9.421039
C -0.150598 -6.507930 5.898312
O -0.198959 -7.104553 7.205242
C 0.618086 -8.155677 7.437507
O 1.467966 -8.606504 6.678013
C 0.418644 -8.716048 8.790347
C -0.618547 -8.449773 9.595112
H 0.897981 -5.347782 12.526749
H -0.724341 -5.760555 11.711175
H 1.716385 -4.405532 10.405379
H 0.264987 -3.147040 6.700210
H -1.059206 -4.234343 7.035486
H -0.831674 -4.259187 4.468058
H 0.739770 -3.452346 4.505227
H 0.973934 -3.482196 2.211576
H -0.688316 -4.099201 2.238202
H 2.732607 -4.735329 0.823930
H 2.312666 -6.176779 1.735697
H 2.098952 -7.316383 -0.074791
H -0.359296 -6.733839 -0.297855
H -1.390660 -6.089149 0.997298
H 1.122095 -8.910100 3.158620
H 0.234968 -11.033862 3.960736
H -1.391046 -10.692151 3.126860
H 0.554810 -4.697554 -1.302447
H 1.176671 -3.400035 -0.257591
H -0.617052 -0.004362 -2.334098
H 2.601628 -4.366804 5.865262
H 2.464201 -6.020944 5.207431
H 3.141221 -6.578000 9.493853
H 5.420641 -6.621500 10.459888
H 6.115195 -6.113918 8.810184
H 0.281386 -7.197958 5.165917
H -1.199087 -6.373740 5.603228
H 1.182443 -9.419799 9.101456
H -0.702748 -8.922629 10.567764
H -1.416368 -7.769160 9.314554
C -6.520647 1.471190 -11.688972
C -5.513179 2.296093 -12.056499
C -4.401998 2.512768 -11.119505
O -4.415557 3.243605 -10.133182
O -3.407700 1.619579 -11.510375
C -2.032694 1.933036 -11.756453
C -1.291902 3.065727 -11.013274
C -1.412842 2.852812 -9.482147
O -1.843970 4.029867 -8.826971
C -2.158003 3.807480 -7.443644
C -2.355696 5.188314 -6.814269
C -3.499639 5.925564 -7.594468
O -4.695787 5.142089 -7.677416
C -1.077465 6.052618 -6.947843
O 0.109934 5.241748 -7.036729
C 1.093895 5.775779 -7.807781
O 1.183881 6.933514 -8.186447
C 2.057963 4.708464 -8.144370
C 3.056638 4.942204 -9.007961
C -2.828225 5.061144 -5.343323
O -2.028441 4.289989 -4.407969
C -2.858806 3.954561 -3.342305
O -4.007642 4.365028 -3.159829
C -2.503859 2.663591 -2.685218
C -2.539982 2.689253 -1.332612
C -1.770873 4.477052 -11.453466
O -1.723971 4.556663 -12.885291
C -1.430235 5.768075 -13.413919
O -1.295630 6.824329 -12.811300
C -1.268065 5.677845 -14.879716
C -1.300924 4.534541 -15.579933
C 0.226314 2.920359 -11.355744
O 0.511286 3.037742 -12.760228
C 1.812128 2.741273 -13.053736
O 2.660203 2.356104 -12.259367
C 2.055144 2.956784 -14.490884
C 3.248931 2.650659 -15.019605
H -6.659709 1.209163 -10.622477
H -7.333093 1.276072 -12.381056
H -5.692721 2.965587 -12.917942
H -1.515677 0.977288 -11.530257
H -1.958986 2.038133 -12.837518
H -0.436824 2.597554 -9.052521
H -2.112052 2.042346 -9.250563
H -3.067170 3.184969 -7.395417
H -1.350156 3.237744 -6.959670
H -3.763336 6.864215 -7.104760
H -3.209028 6.179990 -8.616843
H -4.614961 4.573020 -8.474934
H -0.969039 6.732437 -6.098734
H -1.164925 6.676155 -7.845521
H 1.929343 3.754645 -7.657780
H 3.786734 4.172701 -9.233145
H 3.167256 5.913337 -9.488967
H -2.919086 6.065621 -4.919620
H -3.844523 4.618549 -5.403177
H -2.681151 1.759440 -0.797688
H -2.793108 4.698405 -11.152501
H -1.110310 5.236174 -10.994452
H -1.103496 6.629405 -15.374636
H -1.168466 4.544662 -16.653274
H -1.447840 3.563462 -15.111214
H 0.793434 3.691654 -10.815392
H 0.567082 1.929134 -11.010867
H 1.259590 3.376954 -15.087707
H 4.037613 2.226732 -14.404166
H 3.466870 2.814586 -16.070671
C 4.046006 -9.878591 -11.717944
C 4.210399 -9.978668 -10.391851
C 4.580918 -8.832473 -9.551998
O 4.087884 -8.716128 -8.445253
O 5.462746 -8.003132 -10.169177
C 5.991213 -6.925762 -9.376167
C 5.309622 -5.563847 -9.649492
C 6.079675 -4.403595 -8.965620
O 6.674047 -4.716495 -7.695813
C 7.248283 -3.534153 -7.092927
C 8.696452 -3.719721 -6.584632
C 8.797147 -4.992487 -5.734166
O 10.120775 -5.135660 -5.221896
C 9.710182 -3.727499 -7.769683
O 9.400417 -4.572086 -8.888712
C 9.868948 -5.833450 -8.857308
O 10.346464 -6.439760 -7.906766
C 9.690816 -6.415190 -10.201774
C 9.754981 -7.739381 -10.409101
C 9.102731 -2.476523 -5.736957
O 8.450456 -2.414533 -4.460542
C 8.829600 -1.314475 -3.750324
O 9.575850 -0.430491 -4.147976
C 8.196820 -1.339483 -2.420002
C 7.153811 -0.504705 -2.262571
C 3.838127 -5.617292 -9.142458
O 3.084706 -6.417569 -10.073858
C 1.743300 -6.479508 -9.978024
O 1.036420 -6.058850 -9.078729
C 1.272601 -7.098706 -11.232235
C -0.026487 -7.176425 -11.535908
C 5.260180 -5.270882 -11.170843
O 6.538849 -5.397143 -11.820204
C 6.403426 -5.575155 -13.162283
O 5.364148 -5.585824 -13.799468
C 7.720388 -5.814832 -13.768369
C 7.801335 -6.007347 -15.092245
H 4.209703 -8.960271 -12.264947
H 3.739242 -10.731695 -12.302673
H 3.945263 -10.885364 -9.862180
H 7.038575 -6.868735 -9.661766
H 5.965367 -7.182472 -8.318179
H 6.891050 -4.068019 -9.625572
H 5.398274 -3.560040 -8.823581
H 7.228269 -2.682289 -7.786093
H 6.584426 -3.274799 -6.260207
H 8.525556 -5.895173 -6.295430
H 8.129466 -4.947729 -4.869042
H 10.235145 -6.085055 -5.013798
H 10.737432 -3.925400 -7.431801
H 9.737744 -2.719523 -8.206033
H 9.516570 -5.716427 -11.012130
H 9.913453 -8.423924 -9.579024
H 9.616377 -8.161739 -11.400363
H 10.187819 -2.491369 -5.549547
H 8.859093 -1.559804 -6.292141
H 6.805515 0.086321 -3.109559
H 3.771980 -6.043293 -8.136623
H 3.396788 -4.614544 -9.120981
H 2.030946 -7.453398 -11.922577
H -0.785458 -6.803261 -10.848835
H -0.353690 -7.615828 -12.469532
H 4.555424 -5.954536 -11.657828
H 4.915350 -4.240889 -11.347654
H 8.591958 -5.837077 -13.127909
H 6.909325 -5.983951 -15.716589
H 8.752743 -6.181009 -15.577326
C 13.708655 -2.392828 6.637352
C 12.487466 -1.893523 6.871432
C 11.753583 -1.058294 5.903101
O 10.857376 -0.305461 6.247295
O 12.180392 -1.267237 4.631729
C 11.715358 -0.336162 3.647317
C 10.462649 -0.816296 2.872545
C 9.293220 -1.198309 3.824336
O 8.224402 -1.838604 3.104815
C 7.139265 -2.166931 3.990243
C 6.102571 -3.132492 3.349080
C 5.215832 -3.691643 4.483251
O 4.563400 -2.646612 5.215199
C 6.842273 -4.334368 2.708332
O 5.914095 -5.284738 2.136191
C 6.338180 -6.575384 2.106967
O 7.358712 -7.018008 2.612265
C 5.376314 -7.393892 1.346510
C 5.466815 -8.730811 1.326378
C 5.197172 -2.449799 2.292527
O 5.799568 -1.288887 1.703800
C 5.197794 -0.102082 1.981488
O 4.383796 0.076520 2.880954
C 5.691538 0.957007 1.032198
C 5.451018 2.272753 1.218041
C 10.764773 -2.073759 2.015495
O 11.981643 -2.159413 1.253245
C 11.886838 -1.871169 -0.068337
O 11.255221 -0.947931 -0.550803
C 12.606726 -2.855382 -0.898483
C 12.640577 -2.703504 -2.223299
C 9.974876 0.383318 2.012284
O 11.054947 0.865438 1.217401
C 10.930688 2.094331 0.673321
O 10.064700 2.942457 0.909297
C 12.017981 2.276955 -0.285212
C 12.276490 3.410791 -0.940694
H 14.233491 -2.235406 5.700357
H 14.214892 -3.003644 7.374836
H 11.993031 -2.056022 7.820987
H 11.546415 0.646244 4.105169
H 12.559816 -0.200015 2.956140
H 8.901767 -0.301114 4.324632
H 9.641609 -1.905068 4.580975
H 7.557566 -2.641789 4.887432
H 6.647750 -1.231188 4.281834
H 4.441917 -4.370353 4.112777
H 5.845003 -4.240187 5.187871
H 3.848728 -2.296471 4.692401
H 7.468393 -4.819224 3.470622
H 7.476046 -3.986980 1.893795
H 4.621655 -6.870119 0.782182
H 4.768763 -9.329557 0.745234
H 6.239285 -9.254923 1.884939
H 4.212380 -2.201540 2.705026
H 4.974953 -3.123472 1.459875
H 5.903829 2.953719 0.481906
H 9.924269 -2.259884 1.346823
H 10.796914 -2.950337 2.676388
H 13.027667 -3.718404 -0.407161
H 12.157387 -1.860732 -2.721472
H 13.123983 -3.437647 -2.860548
H 9.610067 1.185269 2.677831
H 9.155196 0.075756 1.348700
H 12.613375 1.390782 -0.492447
H 11.673604 4.302790 -0.767907
H 13.078203 3.476287 -1.667411
C -5.116522 11.830596 6.535141
C -3.783515 11.953094 6.592633
C -2.950357 11.874534 5.380465
O -3.364104 11.682459 4.245904
O -1.660315 12.060918 5.752573
C -0.689500 11.838305 4.717353
C 0.753770 11.878353 5.303770
C 1.768264 11.362054 4.259919
O 1.209980 10.191760 3.661736
C 2.137990 9.205820 3.271660
C 1.557221 8.380562 2.114949
C 0.135405 7.919735 2.465833
O -0.477627 7.109661 1.484132
C 1.472168 9.237829 0.794423
O 1.553684 10.664287 0.932878
C 0.386179 11.343489 0.865826
O -0.739322 10.872278 0.875063
C 0.621928 12.802409 0.729483
C 1.810905 13.364266 0.461279
C 2.512955 7.170338 1.863883
O 2.385178 5.991866 2.712618
C 1.882956 4.939706 2.004124
O 1.271895 5.080833 0.940773
C 2.083635 3.537700 2.528281
C 0.824757 2.987658 2.595670
C 0.806999 10.931826 6.530667
O 1.953463 11.191986 7.370865
C 1.662863 11.759076 8.567258
O 0.539845 12.050383 8.976515
C 2.848111 12.036198 9.389426
C 4.107023 11.660343 9.124928
C 1.156936 13.331145 5.659304
O 0.241170 13.865745 6.610008
C 0.595416 15.048223 7.169906
O 1.608344 15.690249 6.931675
C -0.429382 15.500828 8.129245
C -1.513400 14.789328 8.470375
H -5.616038 11.650106 5.586759
H -5.724183 11.879768 7.431330
H -3.276132 12.093884 7.537558
H -0.904922 10.858068 4.275978
H -0.811086 12.606412 3.941079
H 2.744373 11.152907 4.712962
H 1.923409 12.089070 3.455280
H 2.339306 8.582419 4.144241
H 3.095008 9.655192 2.985228
H 0.123820 7.346789 3.406429
H -0.535746 8.775699 2.616277
H 0.187467 6.656314 0.889781
H 0.607753 8.960258 0.181045
H 2.315979 9.002101 0.143365
H -0.270789 13.411591 0.816140
H 1.906648 14.443345 0.340575
H 2.711220 12.775892 0.337645
H 2.433031 6.910225 0.794319
H 3.567464 7.499355 1.969055
H 0.010546 3.679285 2.756021
H 0.912235 9.891921 6.186281
H -0.118516 10.962278 7.123486
H 2.620018 12.561017 10.313554
H 4.384922 11.107143 8.235309
H 4.899475 11.895239 9.824978
H 2.180466 13.364786 6.048753
H 1.122130 13.958521 4.759760
H -0.250616 16.472418 8.575398
H -1.697245 13.800818 8.055389
H -2.238908 15.162217 9.181495
C -11.834698 -1.177341 -3.542140
C -11.066612 -1.582176 -2.523712
C -10.823684 -3.025901 -2.348542
O -11.385361 -3.903531 -2.986569
O -9.852204 -3.211490 -1.408865
C -9.636345 -4.600631 -1.128568
C -8.811504 -4.802338 0.165139
C -7.404079 -4.198276 -0.040479
O -6.566907 -4.372328 1.105251
C -5.337193 -3.650073 1.015863
C -4.427563 -3.970099 2.218055
C -4.085008 -5.475712 2.102016
O -3.061894 -5.848972 3.014562
C -5.222950 -3.730090 3.522839
O -4.444597 -3.136920 4.562819
C -4.223335 -3.902475 5.652909
O -4.413580 -5.096376 5.769586
C -3.721088 -3.009056 6.719723
C -3.727223 -3.417659 7.993229
C -3.077428 -3.172463 2.156439
O -3.116031 -1.731220 2.122128
C -1.877789 -1.124951 2.121539
O -0.825646 -1.726312 1.949521
C -1.882593 0.341515 2.403315
C -3.022552 1.007351 2.637804
C -8.680688 -6.312833 0.439761
O -9.980064 -6.914341 0.481429
C -10.003916 -8.230941 0.768871
O -9.029853 -8.958288 0.927560
C -11.393738 -8.715402 0.894477
C -12.475865 -8.034241 0.502718
C -9.472751 -4.060680 1.347787
O -10.641940 -4.688904 1.897739
C -11.847596 -4.328549 1.394525
O -12.056789 -3.596423 0.444589
C -12.891832 -4.983732 2.205485
C -14.192396 -4.774877 1.967216
H -12.279010 -1.910461 -4.210481
H -12.034250 -0.128209 -3.731212
H -10.625502 -0.885009 -1.824101
H -9.102600 -5.027113 -1.983348
H -10.603166 -5.114106 -1.052080
H -6.917373 -4.693922 -0.876901
H -7.493398 -3.136034 -0.276540
H -4.833282 -3.906947 0.074436
H -5.556685 -2.583146 1.003067
H -4.967082 -6.107723 2.266433
H -3.720265 -5.704353 1.096800
H -3.006060 -6.830251 2.958978
H -6.027778 -3.005131 3.350059
H -5.735701 -4.642069 3.857304
H -3.374884 -2.025142 6.438174
H -4.061109 -4.416525 8.255843
H -3.387873 -2.773833 8.797272
H -2.551937 -3.501895 1.260047
H -2.488525 -3.445978 3.037571
H -2.960305 2.046401 2.919376
H -8.108357 -6.789880 -0.363210
H -8.165428 -6.490034 1.389677
H -11.493336 -9.705230 1.330002
H -12.418279 -7.051722 0.042815
H -13.471760 -8.444066 0.627657
H -8.767783 -4.012396 2.181934
H -9.689064 -3.016903 1.096751
H -12.568825 -5.637276 3.005175
H -14.954933 -5.264870 2.572151
H -14.524377 -4.116667 1.171904
C -6.262588 -7.445391 7.493794
C -7.497976 -7.141267 7.906790
C -7.911559 -5.735285 8.085720
O -7.163115 -4.794203 8.203584
O -9.265928 -5.701956 8.034885
C -9.886917 -4.421152 7.793323
C -10.507076 -4.341460 6.353664
C -10.875515 -2.859218 6.098343
O -11.191191 -2.552022 4.732232
C -10.228657 -1.697174 4.105276
C -10.842947 -0.444293 3.440021
C -11.698661 0.311854 4.490470
O -12.193591 1.554227 4.003039
C -11.727215 -0.824598 2.229215
O -12.056435 0.354885 1.473640
C -13.005101 0.207181 0.522946
O -13.635918 -0.801615 0.257022
C -13.139074 1.499536 -0.179873
C -13.882598 1.609472 -1.286099
C -9.685735 0.479433 2.972236
O -8.637149 -0.232896 2.284367
C -7.597452 0.608327 2.003206
O -7.561725 1.812306 2.248432
C -6.446255 -0.022233 1.291291
C -6.765979 -0.501011 0.079814
C -9.499818 -4.883671 5.304289
O -9.494443 -6.324717 5.345944
C -8.623649 -6.975109 4.548051
O -7.783081 -6.478420 3.817218
C -8.880216 -8.419085 4.726988
C -8.178439 -9.344056 4.060282
C -11.800299 -5.209027 6.271165
O -11.682071 -6.302323 7.191993
C -12.179700 -7.506451 6.853114
O -12.885932 -7.776143 5.894087
C -11.700640 -8.460248 7.869977
C -12.036158 -9.754484 7.839608
H -5.541641 -6.660459 7.279325
H -5.956850 -8.478617 7.349969
H -8.227886 -7.913489 8.097356
H -9.160021 -3.613433 7.939189
H -10.666122 -4.292067 8.553644
H -11.769853 -2.605088 6.683581
H -10.092486 -2.197732 6.490736
H -9.699333 -2.295628 3.362862
H -9.470576 -1.374839 4.819226
H -12.567304 -0.286843 4.793285
H -11.117375 0.510623 5.400708
H -11.770966 2.278278 4.501508
H -12.646966 -1.328795 2.559975
H -11.168101 -1.479469 1.557282
H -12.609491 2.344873 0.241854
H -13.980895 2.557695 -1.805252
H -14.400598 0.743799 -1.691255
H -9.250832 0.935995 3.874520
H -10.052405 1.297958 2.331015
H -7.803787 -0.804017 -0.119202
H -9.785887 -4.594034 4.291751
H -8.486580 -4.497692 5.485242
H -9.664133 -8.705321 5.416648
H -8.383267 -10.401060 4.186105
H -7.406256 -9.055373 3.353262
H -12.681576 -4.640739 6.566389
H -11.972275 -5.575405 5.249747
H -11.033348 -8.069647 8.631097
H -12.691894 -10.141185 7.065085
H -11.650573 -10.450743 8.578527
C -11.945178 -2.025896 -6.879784
C -11.032299 -2.980228 -6.660825
C -11.342053 -4.414041 -6.900457
O -12.437263 -4.882551 -7.243593
O -10.313429 -5.147406 -6.402380
C -10.616624 -5.860205 -5.181629
C -10.193568 -7.353689 -5.207917
C -8.736286 -7.481524 -5.722666
O -7.827627 -6.576665 -5.079593
C -7.160969 -7.069816 -3.917444
C -5.836658 -6.292739 -3.722967
C -5.150412 -6.806190 -2.442111
O -4.878879 -8.203278 -2.506505
C -4.931894 -6.524020 -4.955436
O -5.053820 -7.864840 -5.475664
C -5.071990 -7.974900 -6.831597
O -4.816854 -7.095118 -7.638193
C -5.481993 -9.331411 -7.264538
C -5.836200 -10.337383 -6.456525
C -6.153571 -4.772822 -3.598948
O -5.115965 -3.971023 -2.996772
C -5.605825 -2.739503 -2.575461
O -6.781377 -2.438119 -2.652339
C -4.565562 -1.762958 -2.019374
C -3.263290 -2.217357 -1.945563
C -11.167253 -8.172336 -6.109535
O -12.505299 -7.666300 -5.847905
C -13.554922 -8.499227 -5.690063
O -13.612463 -9.704074 -5.826893
C -14.659913 -7.611941 -5.245231
C -15.863983 -8.064316 -4.857308
C -10.233874 -7.869871 -3.730802
O -11.487575 -8.424215 -3.300887
C -11.506079 -9.778511 -3.180697
O -10.602413 -10.545519 -3.492574
C -12.786577 -10.201773 -2.578494
C -13.042297 -11.492978 -2.353473
H -11.792513 -1.007157 -6.575200
H -12.909517 -2.243454 -7.328385
H -10.097182 -2.752560 -6.134404
H -10.019522 -5.332250 -4.433030
H -11.670861 -5.744501 -4.921424
H -8.707843 -7.217800 -6.780930
H -8.355148 -8.510962 -5.655735
H -7.802080 -6.918458 -3.041431
H -7.000791 -8.152550 -4.004190
H -4.185866 -6.309295 -2.274020
H -5.769044 -6.612928 -1.560699
H -4.820995 -8.531812 -1.587420
H -5.199821 -5.797507 -5.733300
H -3.877543 -6.378253 -4.688363
H -5.505077 -9.460883 -8.340566
H -5.842919 -10.251151 -5.373351
H -6.141522 -11.292695 -6.868474
H -6.401193 -4.354648 -4.587530
H -7.069180 -4.696726 -2.997803
H -3.063867 -3.287299 -2.107502
H -11.084016 -9.259880 -5.941020
H -10.978547 -7.967360 -7.164572
H -14.429183 -6.551538 -5.198227
H -16.127003 -9.123435 -4.916064
H -16.612809 -7.373872 -4.474402
H -10.030075 -7.054694 -3.030565
H -9.421401 -8.595066 -3.554436
H -13.505756 -9.432551 -2.363005
H -12.318194 -12.257201 -2.609680
H -13.982993 -11.814308 -1.939352
C 3.022763 -12.914731 -2.482571
C 2.165448 -12.183507 -3.199427
C 1.828811 -10.804088 -2.791457
O 2.251008 -10.255014 -1.788703
O 1.014928 -10.282907 -3.742165
C 0.587041 -8.952021 -3.454669
C -0.021003 -8.196686 -4.659430
C -0.313602 -6.761811 -4.124003
O -0.756560 -5.936646 -5.184959
C -1.244160 -4.651656 -4.799435
C -1.647287 -3.917988 -6.107152
C -2.394271 -4.925528 -7.026788
O -3.236580 -4.281334 -7.985492
C -0.348848 -3.459246 -6.825733
O -0.647180 -3.305575 -8.221707
C 0.429163 -3.121827 -9.030057
O 1.556141 -2.773134 -8.714062
C -0.074825 -3.329278 -10.428825
C 0.497586 -2.507846 -11.325234
C -2.592174 -2.727568 -5.799597
O -2.065528 -1.801942 -4.815123
C -2.824394 -0.664520 -4.674349
O -3.817123 -0.385492 -5.323830
C -2.332273 0.196878 -3.523504
C -2.684131 1.495924 -3.561970
C 0.966175 -8.144418 -5.863507
O 1.174772 -9.405836 -6.527244
C 2.349436 -10.046687 -6.295146
O 3.222392 -9.742393 -5.501022
C 2.361847 -11.266228 -7.138136
C 3.351969 -12.161776 -7.044885
C -1.387002 -8.794124 -5.102687
O -1.341903 -10.056075 -5.785457
C -1.553533 -11.152605 -5.013919
O -1.606127 -11.223044 -3.807736
C -1.714259 -12.304111 -5.924153
C -1.786730 -13.549205 -5.435861
H 3.276962 -13.926862 -2.773595
H 3.476884 -12.515636 -1.578813
H 1.685141 -12.566265 -4.086664
H -0.155840 -9.018737 -2.644307
H 1.443082 -8.376214 -3.068939
H 0.574531 -6.313234 -3.676912
H -1.085891 -6.802839 -3.350577
H -2.118141 -4.804291 -4.142549
H -0.477899 -4.113459 -4.231532
H -3.039799 -5.566131 -6.437897
H -1.698760 -5.578699 -7.563701
H -3.798422 -4.986109 -8.353482
H 0.006664 -2.524574 -6.398832
H 0.452727 -4.207382 -6.679962
H -0.903203 -4.021650 -10.612893
H 1.164912 -1.648270 -11.147333
H 0.221862 -2.663265 -12.371318
H -3.542269 -3.100156 -5.389155
H -2.810205 -2.189222 -6.723073
H -3.239125 1.798391 -4.459470
H 0.563398 -7.492464 -6.641646
H 1.925552 -7.709811 -5.576115
H 1.545982 -11.394450 -7.835144
H 3.375306 -13.048336 -7.665028
H 4.173124 -12.017048 -6.346588
H -1.850988 -8.120183 -5.827458
H -2.086556 -8.855492 -4.258268
H -1.778208 -12.093545 -6.980536
H -1.719938 -13.728105 -4.366998
H -1.913507 -14.412231 -6.088887
C 2.974926 -2.215888 8.408269
C 2.305313 -1.521646 9.336649
C 1.198192 -0.578501 9.069013
O 0.599132 -0.023545 9.973159
O 1.004428 -0.377386 7.739803
C 0.065962 0.651507 7.371376
C 0.716308 2.047430 7.161606
C -0.399028 3.112567 6.890687
O -0.935392 3.213674 5.546194
C -1.368762 4.577996 5.311273
C -2.631536 4.823404 4.423310
C -3.698278 3.773435 4.770875
O -4.807670 3.706204 3.895263
C -3.157304 6.220439 4.933395
O -4.238379 6.671272 4.117319
C -4.569040 7.971729 4.331181
O -4.127871 8.672290 5.227844
C -5.535041 8.428624 3.313689
C -6.041894 7.658102 2.338899
C -2.340888 5.056540 2.908992
O -2.164134 3.954862 1.996346
C -3.028664 3.971443 0.926748
O -4.243376 4.135339 1.051760
C -2.355132 3.842622 -0.419526
C -1.442244 4.732630 -0.677556
C 1.444671 2.535759 8.452622
O 2.684619 1.879259 8.729910
C 3.448257 2.518817 9.658699
O 3.158947 3.547871 10.254676
C 4.718157 1.800347 9.819747
C 5.680771 2.293637 10.609566
C 1.697454 1.988536 5.973101
O 2.745122 1.026040 6.163301
C 4.010070 1.470874 5.951457
O 4.335651 2.594264 5.599277
C 4.968184 0.412363 6.287720
C 6.281193 0.664274 6.372194
H 2.745080 -2.142937 7.350139
H 3.766633 -2.903887 8.684280
H 2.550762 -1.628149 10.386631
H -0.382882 0.321160 6.427773
H -0.755691 0.693536 8.098855
H -1.250184 2.943420 7.563217
H 0.022969 4.089029 7.161355
H -1.590220 5.025507 6.289467
H -0.508984 5.137276 4.918923
H -3.271917 2.766485 4.822681
H -4.098447 3.948105 5.782685
H -4.654601 4.146202 3.043124
H -2.340139 6.962075 4.883947
H -3.508673 6.157182 5.975429
H -5.800562 9.476624 3.393455
H -5.779359 6.610447 2.206867
H -6.727092 8.080711 1.616113
H -3.052414 5.759135 2.467520
H -1.374675 5.560419 2.867224
H -0.584460 5.355777 -0.722108
H 1.664650 3.598130 8.345954
H 0.788565 2.443904 9.326126
H 4.864465 0.887845 9.255856
H 6.633147 1.787562 10.721998
H 5.536946 3.216907 11.166279
H 1.168536 1.672281 5.075396
H 2.093440 2.993084 5.780180
H 4.566030 -0.565867 6.503754
H 6.669607 1.659732 6.175235
H 6.982653 -0.116917 6.647362
