528
Molecule ID: homopoly_904858
C 10.511469 -2.441429 10.465600
C 9.025371 -2.688112 10.800453
C 8.892133 -2.455459 12.323608
C 8.512403 -4.070015 10.316203
C 7.019901 -4.034838 10.706470
C 6.633274 -2.574742 10.395342
C 7.965081 -1.947545 9.918366
C 7.949074 -0.435994 9.989809
C 8.282625 -2.506938 8.498170
O 7.213293 -2.345306 7.544351
C 7.432281 -1.468609 6.525201
O 8.376097 -0.696396 6.426814
C 6.447789 -1.514594 5.469670
C 5.648141 -1.532269 4.435245
C 8.569243 -3.998488 8.774252
H 10.797656 -1.420001 10.737508
H 11.134330 -3.140883 11.033717
H 10.763156 -2.589531 9.417988
H 7.881707 -2.601160 12.725898
H 9.557956 -3.140728 12.865787
H 9.190114 -1.434317 12.578364
H 9.030711 -4.938380 10.720791
H 6.433369 -4.751757 10.119611
H 6.865401 -4.275792 11.765722
H 5.838505 -2.523131 9.654392
H 6.253784 -2.087560 11.296002
H 7.750204 -0.097854 11.013660
H 7.171448 -0.012187 9.348513
H 8.909027 -0.011603 9.679551
H 9.195556 -2.045418 8.105164
H 5.988477 -1.013200 3.536728
H 7.845043 -4.669116 8.308059
H 9.561787 -4.280698 8.405050
C 6.110957 -7.159214 -2.497036
C 5.601260 -6.573954 -1.171249
C 4.304931 -5.807798 -1.528101
C 5.413986 -7.620438 -0.041791
C 6.838302 -8.162697 0.194836
C 7.702736 -6.902779 0.016628
C 6.661347 -5.787458 -0.338969
C 7.364726 -4.648021 -1.035076
C 5.914680 -5.478322 0.997289
O 4.950622 -4.408034 1.023624
C 5.364534 -3.158748 1.340992
O 6.491975 -2.703009 1.342599
C 4.160005 -2.384573 1.793199
C 3.274314 -1.773203 0.969934
C 5.068855 -6.775109 1.200311
H 6.250838 -6.361160 -3.236578
H 7.060335 -7.697289 -2.417889
H 5.377317 -7.869355 -2.908567
H 4.541470 -4.923536 -2.123508
H 3.632892 -6.445778 -2.114732
H 3.718539 -5.475552 -0.667672
H 4.677559 -8.405937 -0.230803
H 6.954510 -8.584448 1.196328
H 7.117981 -8.928688 -0.537216
H 8.431217 -7.058796 -0.784789
H 8.266473 -6.683074 0.925568
H 7.940357 -5.009890 -1.892516
H 8.060406 -4.133476 -0.363967
H 6.667399 -3.921551 -1.424771
H 6.620992 -5.349550 1.827696
H 2.463538 -1.274757 1.517990
H 3.997957 -6.558728 1.257835
H 5.348758 -7.276791 2.131039
C -0.285657 -5.214316 -7.157571
C 1.205848 -5.251219 -6.759612
C 1.791145 -6.531762 -7.402708
C 1.975748 -3.955560 -7.129054
C 3.376076 -4.192078 -6.548831
C 3.091546 -4.945529 -5.244514
C 1.533631 -5.059715 -5.253837
C 1.050782 -6.139806 -4.309419
C 0.957406 -3.632827 -4.953471
O 1.447192 -3.084937 -3.716120
C 1.036298 -1.823350 -3.434657
O 0.683767 -0.966171 -4.248267
C 0.796405 -1.639692 -1.988273
C -0.506448 -1.486496 -1.624556
C 1.292331 -2.878169 -6.259741
H -0.378959 -5.159887 -8.247943
H -0.847248 -4.370677 -6.751897
H -0.789742 -6.126154 -6.821027
H 2.852966 -6.693296 -7.210056
H 1.265716 -7.413447 -7.023021
H 1.665260 -6.503834 -8.493371
H 1.983779 -3.696653 -8.187669
H 3.909063 -3.263783 -6.367861
H 3.986183 -4.803994 -7.217743
H 3.564407 -5.938297 -5.265085
H 3.477853 -4.422201 -4.365635
H 1.625802 -7.062331 -4.418361
H 0.002380 -6.385532 -4.507942
H 1.142160 -5.822201 -3.263122
H -0.122740 -3.719026 -4.864600
H -0.665247 -1.295883 -0.551601
H 1.930498 -2.017385 -6.104326
H 0.375551 -2.521478 -6.740239
C -7.653190 1.050349 3.575780
C -7.183319 -0.406083 3.792130
C -8.169552 -1.029506 4.793004
C -5.701989 -0.503023 4.193567
C -5.458670 -2.018352 4.254798
C -6.262202 -2.535768 3.044203
C -6.932750 -1.249815 2.497689
C -8.147481 -1.546994 1.645772
C -5.854078 -0.390478 1.772791
O -5.222169 -1.040076 0.675198
C -4.370949 -0.212851 0.012016
O -3.873289 0.819425 0.461844
C -4.089649 -0.639001 -1.391311
C -5.197073 -0.559223 -2.145384
C -4.931419 0.005585 2.954711
H -8.623828 1.079483 3.066368
H -6.962649 1.677133 3.001873
H -7.776537 1.558445 4.545172
H -7.999622 -2.090070 4.997339
H -8.123295 -0.506808 5.754773
H -9.195679 -0.938938 4.412044
H -5.449205 0.024978 5.106180
H -4.405813 -2.282770 4.191800
H -5.845677 -2.436377 5.195284
H -5.625267 -3.024659 2.312335
H -7.005145 -3.273029 3.365708
H -8.720360 -0.631027 1.468149
H -7.862043 -1.983550 0.683483
H -8.827686 -2.255027 2.136972
H -6.350904 0.498766 1.365353
H -6.167094 -0.573984 -1.647974
H -3.932219 -0.433899 2.872370
H -4.798743 1.091694 3.006493
C -11.414143 0.364884 -3.341304
C -10.218126 1.331358 -3.314199
C -9.285338 0.909602 -4.477760
C -10.591464 2.835320 -3.329201
C -11.397182 3.021843 -2.027619
C -10.663241 2.106595 -1.040893
C -9.535418 1.480693 -1.917936
C -8.972576 0.208906 -1.311487
C -8.497008 2.621582 -2.142555
O -7.262035 2.042810 -2.604525
C -6.324755 2.890609 -3.107050
O -6.465122 4.079990 -3.326865
C -5.082290 2.136696 -3.478444
C -3.932241 2.793133 -3.234606
C -9.232591 3.553125 -3.129950
H -12.047336 0.403747 -2.456139
H -11.079482 -0.677739 -3.423141
H -12.047578 0.584487 -4.203274
H -8.506258 1.629187 -4.731047
H -8.790687 -0.038654 -4.244538
H -9.863458 0.766382 -5.393757
H -11.117717 3.182095 -4.216872
H -11.407727 4.063995 -1.686941
H -12.434426 2.688860 -2.164606
H -10.256677 2.667457 -0.191730
H -11.341459 1.355649 -0.623488
H -8.359896 0.453035 -0.436965
H -9.767975 -0.474782 -0.992948
H -8.352515 -0.340554 -2.019795
H -8.265310 3.120856 -1.200233
H -4.044207 3.737273 -2.704710
H -8.723546 3.664102 -4.088420
H -9.362381 4.558932 -2.708742
C -6.277074 9.233049 -2.726433
C -5.464663 8.084357 -2.080196
C -5.996585 6.784775 -2.693921
C -5.471544 8.127138 -0.543300
C -4.728284 9.430392 -0.206562
C -3.693948 9.530103 -1.343477
C -3.924341 8.215847 -2.143611
C -3.314079 8.290752 -3.533174
C -3.391456 7.076504 -1.179253
O -3.159822 5.744324 -1.672968
C -1.983779 5.542432 -2.312349
O -1.298688 6.429859 -2.796415
C -1.447820 4.162230 -2.053789
C -0.659300 4.213695 -0.962649
C -4.520627 6.986425 -0.132526
H -5.966927 9.405399 -3.764544
H -6.194370 10.187952 -2.199053
H -7.348012 8.990092 -2.756648
H -7.047195 6.641409 -2.422416
H -5.460518 5.901592 -2.354114
H -5.930794 6.812733 -3.789410
H -6.453793 8.058774 -0.067017
H -5.384608 10.302252 -0.197775
H -4.234574 9.389443 0.775667
H -2.678945 9.629306 -0.966677
H -3.893489 10.421131 -1.957382
H -3.447039 7.358972 -4.091912
H -2.241759 8.525357 -3.477056
H -3.766127 9.083804 -4.138301
H -2.477910 7.411019 -0.681992
H -0.679082 5.124451 -0.369674
H -4.117220 7.107509 0.881451
H -5.040256 6.028821 -0.131660
C 7.414346 1.671879 1.999195
C 6.978053 2.907393 1.189772
C 8.089297 3.960945 1.397298
C 6.666980 2.590428 -0.286327
C 6.245778 3.960826 -0.829251
C 5.360132 4.514823 0.306309
C 5.526921 3.439244 1.422118
C 5.225987 4.007426 2.790450
C 4.664762 2.191372 1.027050
O 3.252170 2.428616 0.822136
C 2.529253 2.149917 1.951640
O 3.082192 1.904108 3.009004
C 1.029605 2.182940 1.833898
C 0.307667 1.771177 2.928554
C 5.380753 1.705648 -0.236492
H 6.782747 0.791544 1.857240
H 7.437696 1.889137 3.070991
H 8.420312 1.368306 1.694597
H 7.875707 4.944323 0.968995
H 9.026533 3.614733 0.944245
H 8.268625 4.128018 2.465196
H 7.485870 2.132427 -0.853731
H 7.109629 4.612260 -1.022698
H 5.723874 3.866928 -1.776404
H 4.316819 4.615634 0.008747
H 5.707668 5.507958 0.608704
H 5.279709 3.227405 3.549969
H 4.219390 4.448729 2.812046
H 5.931802 4.794916 3.075892
H 4.786143 1.390962 1.762338
H -0.787525 1.766833 2.877019
H 5.653127 0.642327 -0.143962
H 4.748892 1.816462 -1.121286
C -1.341160 -6.717906 2.165361
C -1.871213 -5.317788 2.539817
C -3.260769 -5.552401 3.170549
C -1.882809 -4.304985 1.371210
C -0.408747 -4.226792 0.987681
C 0.287401 -4.207238 2.347013
C -0.879665 -4.410591 3.338167
C -0.407834 -4.967337 4.658268
C -1.673763 -3.075681 3.409474
O -0.971717 -1.875830 3.741360
C -1.148530 -1.516348 5.046626
O -1.559901 -2.282488 5.907034
C -0.979238 -0.052992 5.267316
C -1.898328 0.704316 5.937504
C -2.261691 -2.956258 2.002375
H -1.927480 -7.157199 1.345525
H -0.293375 -6.735203 1.856543
H -1.410904 -7.403444 3.019731
H -3.174020 -6.061134 4.137986
H -3.843522 -4.640741 3.336381
H -3.876104 -6.182340 2.515414
H -2.532275 -4.579263 0.545813
H -0.166246 -3.336513 0.410543
H -0.093680 -5.092841 0.405722
H 1.043980 -5.000635 2.410468
H 0.798543 -3.263084 2.515439
H 0.350536 -4.308624 5.092106
H -1.239348 -5.057015 5.367011
H 0.042912 -5.960638 4.548612
H -2.512840 -3.215643 4.093316
H -1.626609 1.744445 6.105996
H -3.345403 -2.854865 2.048371
H -1.865490 -2.095780 1.449228
C 0.120564 -3.463917 7.849847
C 1.159029 -3.857164 8.892220
C 0.476883 -4.913163 9.798032
C 1.740178 -2.663945 9.676969
C 2.837969 -3.322558 10.542798
C 3.338540 -4.475969 9.645265
C 2.557677 -4.255119 8.326437
C 2.569857 -5.491795 7.450786
C 3.181157 -2.915176 7.733927
O 3.075495 -2.589205 6.332390
C 4.052193 -3.149121 5.567347
O 4.634739 -4.195052 5.796558
C 4.431960 -2.335365 4.366725
C 3.778634 -2.621217 3.217938
C 2.459209 -1.850580 8.592181
H -0.665952 -2.860271 8.311971
H 0.546463 -2.898823 7.020380
H -0.359118 -4.353466 7.427203
H 1.033150 -5.196741 10.698154
H -0.498147 -4.545525 10.154430
H 0.291494 -5.837636 9.236013
H 1.022206 -2.083057 10.259730
H 2.432925 -3.709961 11.482248
H 3.637158 -2.623700 10.806561
H 4.418867 -4.432368 9.502693
H 3.121014 -5.442600 10.099956
H 1.945361 -5.367285 6.559982
H 2.212538 -6.364341 8.003876
H 3.576932 -5.755715 7.126237
H 4.250998 -2.854336 8.003118
H 2.925344 -3.309102 3.286694
H 1.757169 -1.260996 8.004109
H 3.195218 -1.160990 9.016575
C 3.888261 -0.405425 -5.639328
C 5.408091 -0.260567 -5.546405
C 5.823073 0.551708 -6.793200
C 6.203276 -1.581140 -5.407650
C 7.653472 -1.107488 -5.202573
C 7.476258 0.186607 -4.388537
C 5.934214 0.253942 -4.185384
C 5.474017 1.623350 -3.777282
C 5.589111 -0.878163 -3.161758
O 4.288663 -0.832752 -2.514980
C 4.252645 -1.684597 -1.446073
O 5.228035 -2.348464 -1.105713
C 3.080354 -1.637638 -0.530245
C 1.764100 -1.603918 -0.876588
C 5.715436 -2.140137 -4.056576
H 3.618156 -0.867928 -6.592851
H 3.404658 0.570838 -5.605472
H 3.456132 -1.002126 -4.839376
H 6.872303 0.859308 -6.827900
H 5.232624 1.471625 -6.873553
H 5.639254 -0.035966 -7.707172
H 6.093748 -2.291361 -6.225721
H 8.144875 -0.881252 -6.155940
H 8.269847 -1.835377 -4.671124
H 8.030321 0.141934 -3.439263
H 7.862675 1.051716 -4.944356
H 5.477352 2.323975 -4.619462
H 4.460878 1.583750 -3.362247
H 6.131477 2.029498 -3.012124
H 6.366348 -0.859488 -2.380593
H 1.143716 -1.590262 0.036788
H 4.759723 -2.660050 -4.164710
H 6.434550 -2.849268 -3.626093
C -4.714958 -5.687305 -1.021149
C -4.307513 -6.538710 -2.234459
C -5.542226 -7.416831 -2.549727
C -2.992505 -7.334430 -2.051293
C -2.772960 -7.993754 -3.429032
C -3.272592 -6.903590 -4.397575
C -3.711830 -5.755078 -3.438323
C -4.660812 -4.800173 -4.101040
C -2.376265 -5.132312 -2.899275
O -2.429192 -3.856264 -2.216302
C -2.259496 -2.757752 -3.010683
O -2.312857 -2.760565 -4.232625
C -1.836074 -1.555579 -2.241797
C -2.681417 -0.623939 -1.739467
C -1.929437 -6.236061 -1.899863
H -5.649055 -5.142638 -1.211186
H -3.995052 -4.918760 -0.762180
H -4.868429 -6.307926 -0.128240
H -6.415620 -6.785531 -2.740586
H -5.424257 -8.065062 -3.414856
H -5.782091 -8.060960 -1.694459
H -3.003401 -8.053617 -1.229308
H -1.714090 -8.238520 -3.610730
H -3.360821 -8.915348 -3.531800
H -4.097828 -7.283117 -5.003500
H -2.484884 -6.593901 -5.095197
H -5.049862 -4.107450 -3.364743
H -5.505971 -5.318145 -4.566646
H -4.163748 -4.226337 -4.878239
H -1.632616 -5.055829 -3.697679
H -2.200809 0.210417 -1.219910
H -0.936201 -6.617304 -2.146789
H -1.898620 -5.867842 -0.883347
C -6.658108 -0.932528 -10.121099
C -5.995177 -1.177150 -8.751253
C -5.671051 0.211444 -8.186097
C -4.800130 -2.166811 -8.787976
C -5.445919 -3.485982 -9.275524
C -6.820695 -3.467161 -8.587422
C -6.796165 -2.126827 -7.799441
C -8.181569 -1.656577 -7.385317
C -5.811743 -2.346638 -6.605005
O -5.754568 -1.232610 -5.711941
C -5.950977 -1.456365 -4.389441
O -6.535691 -2.413563 -3.904957
C -5.367183 -0.351685 -3.571058
C -5.294124 0.871844 -4.134352
C -4.441815 -2.393478 -7.302952
H -5.959978 -0.418005 -10.795929
H -6.980777 -1.840143 -10.643819
H -7.541394 -0.292209 -10.016726
H -5.319045 0.881120 -8.974700
H -4.889403 0.217558 -7.428785
H -6.563984 0.682172 -7.758473
H -3.952155 -1.853861 -9.405261
H -5.547303 -3.507879 -10.361766
H -4.854409 -4.363077 -8.994886
H -7.626120 -3.494918 -9.333045
H -6.952491 -4.328649 -7.919252
H -8.678861 -2.415210 -6.772263
H -8.823378 -1.473244 -8.258848
H -8.139650 -0.732322 -6.802985
H -6.026922 -3.274842 -6.070970
H -5.517052 1.001026 -5.194721
H -3.949711 -3.359554 -7.150584
H -3.760214 -1.620889 -6.931252
C 0.678024 2.073709 -9.802017
C -0.217884 2.559482 -8.637990
C 0.746608 3.085948 -7.579577
C -1.333429 3.559771 -9.051056
C -2.188100 2.750548 -10.034918
C -2.145788 1.333316 -9.424769
C -1.267999 1.519568 -8.144920
C -0.738468 0.208118 -7.614379
C -2.152739 2.323020 -7.144003
O -1.644455 2.457837 -5.797664
C -2.263999 1.684778 -4.865328
O -2.775547 0.604527 -5.113176
C -2.551475 2.516622 -3.627249
C -1.471185 3.125482 -3.071487
C -2.154546 3.738818 -7.758707
H 1.362695 1.284518 -9.464881
H 1.296031 2.892278 -10.186584
H 0.134449 1.663540 -10.658476
H 0.266057 3.567520 -6.733273
H 1.363965 2.274151 -7.190188
H 1.405470 3.845847 -8.009204
H -0.966970 4.508923 -9.458471
H -1.746801 2.771997 -11.031399
H -3.216143 3.133833 -10.112556
H -1.690655 0.625615 -10.129829
H -3.143253 0.957855 -9.197570
H -1.554068 -0.451377 -7.299727
H -0.079913 0.348115 -6.750442
H -0.166980 -0.330538 -8.379693
H -3.163365 1.914855 -7.120417
H -0.483590 2.851479 -3.432912
H -1.700776 4.472597 -7.078738
H -3.177999 4.060767 -7.971952
C 3.421098 6.062161 -6.265546
C 3.683242 5.655078 -4.800663
C 5.140776 5.168484 -4.756670
C 3.380111 6.789434 -3.789103
C 1.864863 7.015536 -3.959645
C 1.342517 5.599598 -4.237504
C 2.611165 4.730181 -4.149270
C 2.423291 3.368583 -4.779425
C 3.037251 4.676011 -2.644060
O 1.983063 4.454511 -1.698140
C 1.601378 3.194245 -1.376206
O 2.017565 2.128976 -1.800575
C 0.401027 3.322605 -0.488466
C 0.250706 2.841903 0.770024
C 3.588134 6.110855 -2.418294
H 2.373829 6.274590 -6.508704
H 3.730372 5.266614 -6.954827
H 3.996481 6.965484 -6.521432
H 5.468540 4.795134 -3.783814
H 5.831353 5.979915 -5.029163
H 5.296073 4.360403 -5.480080
H 3.965677 7.706392 -3.919648
H 1.635122 7.675192 -4.803426
H 1.399464 7.443634 -3.065213
H 0.854430 5.542142 -5.214858
H 0.604542 5.283953 -3.506328
H 2.801400 3.331782 -5.806840
H 1.371036 3.062855 -4.777294
H 2.952622 2.596820 -4.222231
H 3.819521 3.938777 -2.471218
H -0.738622 3.088618 1.180658
H 3.078070 6.632854 -1.602303
H 4.655730 6.083825 -2.183313
C 5.091372 5.011272 7.921899
C 4.796789 3.555791 8.352923
C 5.925448 3.152330 9.324276
C 3.363873 3.332512 8.913038
C 3.282222 1.802827 9.116263
C 4.100922 1.255312 7.932958
C 4.539551 2.556512 7.183721
C 5.678687 2.300098 6.221628
C 3.265844 3.145133 6.501365
O 2.543683 2.125199 5.798719
C 1.578742 2.588691 4.965312
O 1.270068 3.768168 4.816982
C 0.793590 1.483532 4.272659
C 0.333646 0.591442 5.178408
C 2.456567 3.673723 7.707832
H 6.089404 5.081628 7.471776
H 5.069305 5.678050 8.794935
H 4.394920 5.424345 7.189618
H 5.912269 3.786059 10.213968
H 6.903587 3.266343 8.853002
H 5.867999 2.126118 9.681774
H 3.110542 3.900717 9.816456
H 2.249330 1.434903 9.097763
H 3.735562 1.505001 10.064825
H 4.964290 0.674689 8.287864
H 3.521231 0.571409 7.301763
H 6.012841 3.228119 5.761435
H 6.542742 1.858453 6.731122
H 5.381010 1.610527 5.430598
H 3.523536 3.953966 5.804837
H 0.818218 0.526785 6.158863
H 1.467489 3.218704 7.806753
H 2.324539 4.757179 7.619102
C -3.442288 5.292818 5.338619
C -3.619253 5.876431 6.755943
C -3.032938 7.308369 6.691427
C -5.078133 5.815322 7.287000
C -4.963824 6.333064 8.738702
C -3.590165 5.793663 9.176099
C -3.107757 4.996025 7.940904
C -1.619483 4.695018 7.947878
C -4.019879 3.728158 7.890502
O -3.457835 2.714287 7.046762
C -4.036179 1.490674 7.188405
O -5.104144 1.290583 7.759815
C -3.172759 0.408562 6.583846
C -3.507227 -0.810101 6.944334
C -5.355819 4.297299 7.359830
H -2.383648 5.265960 5.057357
H -3.818943 4.277140 5.212851
H -3.968893 5.918688 4.603306
H -3.058255 7.849565 7.641109
H -3.596560 7.912303 5.973093
H -1.991539 7.286464 6.362745
H -5.823664 6.359737 6.702615
H -4.988943 7.427584 8.774942
H -5.769212 5.947132 9.376043
H -3.687718 5.160012 10.066316
H -2.923431 6.617421 9.446712
H -1.292988 4.249811 6.999156
H -1.373191 3.985188 8.744231
H -1.034819 5.607195 8.103488
H -4.145419 3.307673 8.900263
H -3.770808 -1.779096 7.299322
H -5.623225 3.886139 6.381835
H -6.178079 4.066381 8.047024
