448
Molecule ID: homopoly_10013799
C 1.395468 2.405146 -13.211634
C 0.621427 1.156495 -12.807718
C 0.741362 0.089495 -13.894695
O 1.187840 0.695713 -11.570018
C 0.412726 -0.188724 -10.906173
O -0.661074 -0.665660 -11.249305
C 0.926542 -0.530314 -9.616012
C 1.134858 -0.914725 -8.380441
C -0.046671 -1.512016 -7.708196
C -0.647084 -0.851245 -6.624960
C -1.758138 -1.400660 -5.983428
C -2.283543 -2.610002 -6.437596
O -3.363284 -3.145165 -5.803820
C -1.718118 -3.250774 -7.532200
O -2.276195 -4.397360 -8.007412
C -0.614573 -2.712840 -8.177279
H 1.115675 2.745784 -14.216507
H 1.195412 3.224580 -12.504439
H 2.472664 2.223033 -13.188908
H -0.436424 1.427946 -12.673034
H 0.164969 -0.804456 -13.636149
H 0.368740 0.458742 -14.857712
H 1.780855 -0.229943 -14.021526
H -0.253131 0.105566 -6.286558
H -2.218743 -0.881180 -5.145718
H -3.431790 -4.057516 -6.140348
H -2.915119 -4.090923 -8.678431
H -0.183172 -3.214924 -9.040341
C 8.134257 -0.784085 -7.931253
C 7.076692 -1.845380 -8.194122
C 6.885029 -2.036569 -9.690214
O 5.836615 -1.389749 -7.644595
C 5.502951 -1.886387 -6.422128
O 6.121543 -2.719590 -5.785665
C 4.230795 -1.245814 -5.991055
C 4.162169 -0.612367 -4.782184
C 2.872225 0.128847 -4.517311
C 1.757403 -0.517687 -3.963684
C 0.624559 0.206034 -3.593620
C 0.614095 1.587483 -3.748987
O -0.467061 2.293632 -3.304699
C 1.712866 2.245366 -4.285475
O 1.675717 3.610716 -4.332596
C 2.837147 1.531095 -4.679168
H 8.287626 -0.652350 -6.854773
H 9.097383 -1.053883 -8.384018
H 7.826627 0.190433 -8.325123
H 7.394954 -2.801999 -7.765561
H 6.541325 -1.118194 -10.175282
H 6.123735 -2.795767 -9.887239
H 7.814305 -2.355354 -10.180213
H 1.788753 -1.573316 -3.714754
H -0.224300 -0.308275 -3.162359
H -0.195217 3.229349 -3.409043
H 2.488566 3.915543 -4.776736
H 3.712730 2.046315 -5.067307
C 3.734797 -6.120335 -3.543791
C 4.692148 -5.098321 -4.110229
C 5.820417 -5.812758 -4.847893
O 5.295688 -4.320482 -3.062979
C 4.579258 -3.263399 -2.586000
O 3.398131 -3.047553 -2.776675
C 5.604408 -2.288559 -2.077930
C 5.986747 -2.326216 -0.756152
C 7.244686 -1.646786 -0.248225
C 8.145810 -2.408514 0.526496
C 9.289160 -1.854130 1.104814
C 9.544007 -0.501124 0.935008
O 10.624913 0.114302 1.496395
C 8.653759 0.278657 0.201331
O 8.881310 1.623351 0.063636
C 7.516293 -0.276513 -0.383940
H 2.897705 -5.632842 -3.037712
H 4.233126 -6.755445 -2.812383
H 3.326662 -6.761191 -4.333587
H 4.189811 -4.427763 -4.809592
H 6.551938 -5.097780 -5.236980
H 5.426119 -6.407369 -5.681417
H 6.361539 -6.472059 -4.164631
H 7.959653 -3.457233 0.731381
H 9.950137 -2.491149 1.686146
H 11.146420 -0.572814 1.950434
H 9.716172 1.771754 0.554659
H 6.846798 0.389236 -0.909019
C -0.145525 -7.256734 1.152118
C 0.770079 -6.314003 0.374329
C 1.444281 -7.078395 -0.753525
O 1.778006 -5.786045 1.253833
C 2.312088 -4.575621 0.898164
O 1.918159 -3.850896 0.005664
C 3.631226 -4.427436 1.591057
C 3.755576 -4.439382 2.951778
C 5.092663 -4.956566 3.441627
C 5.166850 -6.281149 3.911739
C 6.383974 -6.850559 4.308152
C 7.543206 -6.093020 4.232091
O 8.764695 -6.600738 4.573886
C 7.478600 -4.771259 3.827994
O 8.615798 -4.020201 3.771383
C 6.271082 -4.194872 3.438972
H -0.678732 -6.724266 1.943927
H 0.441932 -8.045582 1.626578
H -0.879200 -7.725568 0.489157
H 0.177037 -5.503198 -0.042990
H 2.216631 -6.455259 -1.207907
H 1.945867 -7.976777 -0.374953
H 0.722790 -7.356704 -1.526485
H 4.275980 -6.901857 3.965153
H 6.390354 -7.881986 4.649137
H 8.638716 -7.532535 4.833765
H 9.311452 -4.643227 4.067551
H 6.276312 -3.165406 3.115289
C -2.559001 -4.585157 0.207010
C -1.695147 -3.399909 0.639923
C -0.956528 -2.897410 -0.609649
O -0.828602 -3.788464 1.744321
C -0.223956 -2.724474 2.354542
O -0.200370 -1.586661 1.901762
C 0.337964 -3.051565 3.726550
C -0.113235 -2.195142 4.714142
C 0.627868 -2.032332 5.991333
C 1.529109 -0.953345 6.074721
C 2.129411 -0.593495 7.284784
C 1.815808 -1.328042 8.422734
O 2.302587 -0.952972 9.642397
C 0.956983 -2.423329 8.351518
O 0.646079 -3.126429 9.478568
C 0.351078 -2.772682 7.148282
H -1.961283 -5.347211 -0.294821
H -3.343053 -4.255921 -0.490298
H -3.034256 -5.074495 1.053853
H -2.357532 -2.612120 1.019692
H -0.293560 -2.063641 -0.402823
H -1.669783 -2.580343 -1.377131
H -0.345084 -3.687754 -1.049584
H 1.698885 -0.324271 5.199477
H 2.793998 0.255962 7.324866
H 2.171365 0.010132 9.676330
H 1.248208 -2.762609 10.165960
H -0.360753 -3.589374 7.145986
C -6.974746 0.691309 6.568715
C -6.124174 -0.523173 6.183520
C -7.076179 -1.657878 5.793477
O -5.230786 -0.288920 5.060307
C -4.228344 0.611298 5.290884
O -4.205841 1.393201 6.222675
C -3.078933 0.409294 4.341658
C -3.077467 1.343447 3.332438
C -3.415343 0.694217 1.996871
C -4.647988 0.043635 1.804745
C -4.947603 -0.595650 0.599066
C -4.061339 -0.555978 -0.451636
O -4.373904 -1.187008 -1.619108
C -2.862210 0.117429 -0.316211
O -2.031171 0.144861 -1.394787
C -2.525261 0.698900 0.900236
H -7.618626 0.996572 5.735658
H -6.379196 1.562448 6.855799
H -7.625811 0.452017 7.420278
H -5.519310 -0.848161 7.041359
H -7.744015 -1.343854 4.979389
H -7.700343 -1.961514 6.637958
H -6.528619 -2.525710 5.435768
H -5.383378 0.009939 2.606944
H -5.875146 -1.146385 0.479739
H -3.618896 -0.995705 -2.209989
H -1.277990 0.723989 -1.188035
H -1.532181 1.126032 0.970211
C -3.706954 6.723338 8.044269
C -2.584384 6.569849 7.021182
C -1.901792 7.912408 6.803239
O -3.050064 6.132363 5.729253
C -3.508728 4.855877 5.633206
O -3.658861 4.085184 6.560446
C -3.730046 4.467788 4.166846
C -4.778759 5.049731 3.495878
C -5.193127 6.394719 4.075665
C -6.029002 6.534184 5.187459
C -6.342822 7.799255 5.691046
C -5.765282 8.919019 5.114217
O -6.042585 10.150350 5.635038
C -4.892081 8.796278 4.044287
O -4.301033 9.940628 3.576299
C -4.613666 7.547411 3.503617
H -3.302263 7.033153 9.012533
H -4.426250 7.479336 7.727315
H -4.268643 5.795033 8.189136
H -1.844448 5.845197 7.375952
H -2.640543 8.682831 6.564073
H -1.353606 8.225224 7.701896
H -1.215997 7.874770 5.955059
H -6.420865 5.657869 5.693812
H -6.993773 7.895352 6.552212
H -5.540970 10.771350 5.066696
H -3.555591 9.686642 3.010185
H -3.941931 7.459120 2.657388
C -5.471079 9.448031 0.180911
C -6.767413 8.657883 0.247543
C -7.634183 9.130702 1.408150
O -6.452773 7.258565 0.434108
C -7.397935 6.409186 -0.037909
O -8.385767 6.775579 -0.662981
C -7.217803 4.986674 0.457817
C -7.878464 4.021944 -0.251517
C -8.400912 2.852908 0.503458
C -7.715430 1.631755 0.545688
C -8.253252 0.555855 1.261163
C -9.470994 0.702327 1.929593
O -9.996650 -0.315683 2.674357
C -10.172730 1.895270 1.850129
O -11.361412 2.054786 2.512774
C -9.661498 2.955999 1.127377
H -4.911908 9.199383 -0.723998
H -5.657435 10.524126 0.169027
H -4.816945 9.210580 1.020137
H -7.299482 8.833369 -0.700239
H -7.279772 8.729685 2.361332
H -8.656633 8.767247 1.281278
H -7.679487 10.223545 1.463422
H -6.770524 1.523965 0.021302
H -7.726919 -0.390902 1.300119
H -9.603861 -1.144869 2.350159
H -11.294907 1.440388 3.265277
H -10.224957 3.890424 1.078445
C 4.511866 3.120445 -8.996185
C 4.137452 1.818544 -9.690075
C 5.220392 1.431078 -10.694919
O 3.982477 0.704745 -8.780892
C 2.918841 0.767833 -7.934819
O 2.336510 1.780041 -7.588500
C 2.405121 -0.612289 -7.690655
C 3.064302 -1.512542 -6.896318
C 2.664405 -2.945382 -7.034715
C 3.027850 -3.647799 -8.200044
C 2.653201 -4.975910 -8.368498
C 1.917012 -5.613107 -7.380419
O 1.519640 -6.906981 -7.571763
C 1.560841 -4.934326 -6.217576
O 0.846478 -5.612152 -5.261451
C 1.940191 -3.611553 -6.032093
H 5.263853 2.955706 -8.217318
H 3.637828 3.576423 -8.511877
H 4.887297 3.864417 -9.709899
H 3.201013 1.953715 -10.244369
H 4.973177 0.476878 -11.181145
H 6.189234 1.298433 -10.185661
H 5.344895 2.198331 -11.468863
H 3.580253 -3.150577 -8.993851
H 2.933194 -5.520287 -9.268789
H 0.898212 -7.077837 -6.837291
H 0.848775 -5.063428 -4.456199
H 1.646831 -3.088284 -5.132898
C 2.046908 0.279286 -0.543322
C 3.280116 1.018395 -1.067355
C 4.176953 1.510460 0.045232
O 3.974726 0.085699 -1.900441
C 4.969189 0.561030 -2.676390
O 5.487677 1.653874 -2.613852
C 5.284436 -0.455850 -3.753613
C 6.107594 -1.412353 -3.196635
C 7.585906 -1.271643 -3.467016
C 8.168544 -0.043199 -3.844171
C 9.551525 0.080835 -4.017096
C 10.362377 -1.029258 -3.834371
O 11.722077 -0.963897 -3.987193
C 9.801479 -2.257826 -3.507514
O 10.604162 -3.350045 -3.328274
C 8.431584 -2.390396 -3.324353
H 1.942352 -0.714131 -0.988101
H 2.066703 0.157748 0.538354
H 1.141226 0.859850 -0.772444
H 2.951854 1.868897 -1.676626
H 4.759449 2.383854 -0.279134
H 3.619812 1.820878 0.931834
H 4.892414 0.746008 0.340738
H 7.559619 0.851654 -3.965036
H 9.961536 1.054930 -4.252307
H 11.955340 -0.068018 -4.289842
H 11.510507 -3.010831 -3.490585
H 8.035893 -3.362601 -3.053737
C 6.114878 0.795312 3.055235
C 5.325707 -0.504677 3.146592
C 3.899637 -0.235036 3.595839
O 5.503996 -1.268552 1.921744
C 4.508498 -1.868608 1.227094
O 3.321060 -1.682065 1.388763
C 5.102462 -2.937924 0.304781
C 4.773685 -4.240481 0.610306
C 5.416981 -5.481190 0.020731
C 4.849347 -6.760416 0.246051
C 5.416486 -7.947713 -0.246922
C 6.605792 -7.894547 -0.943329
O 7.199601 -9.011480 -1.452133
C 7.212176 -6.665380 -1.142193
O 8.398690 -6.605578 -1.806736
C 6.629739 -5.478317 -0.687177
H 7.156630 0.600176 2.774102
H 5.691362 1.464003 2.305752
H 6.105915 1.335430 4.013130
H 5.818366 -1.092954 3.923792
H 3.373903 -1.172931 3.781405
H 3.892408 0.335891 4.529533
H 3.339392 0.334012 2.850854
H 3.933996 -6.877118 0.815727
H 4.912265 -8.895686 -0.055798
H 6.573170 -9.749903 -1.366017
H 8.612081 -7.530112 -2.048752
H 7.168181 -4.566659 -0.909884
C 5.730364 -1.920994 6.831825
C 4.755900 -3.090969 6.841743
C 5.495715 -4.369999 7.245897
O 4.173760 -3.168910 5.526537
C 3.128712 -4.018341 5.394183
O 2.640084 -4.681950 6.295223
C 2.658848 -4.020397 3.946180
C 1.309525 -4.224515 3.823301
C 0.738809 -5.548289 4.359483
C 1.388379 -6.771955 4.135386
C 0.941044 -7.976041 4.687601
C -0.190651 -7.977641 5.492357
O -0.630932 -9.135284 6.063021
C -0.878965 -6.785670 5.718638
O -1.991127 -6.792116 6.513607
C -0.430209 -5.598301 5.135980
H 5.210072 -0.994459 6.575828
H 6.521771 -2.072548 6.085266
H 6.197614 -1.790402 7.814217
H 3.961251 -2.891468 7.568268
H 6.286256 -4.618489 6.537919
H 5.933668 -4.252327 8.240927
H 4.820669 -5.232267 7.284754
H 2.261813 -6.813585 3.494452
H 1.482093 -8.888665 4.480243
H 0.048853 -9.817417 5.943240
H -2.308631 -5.882427 6.612928
H -0.998760 -4.694610 5.324651
C -3.782682 -5.000840 3.766143
C -4.335612 -3.581905 3.678236
C -5.323412 -3.456963 2.535054
O -3.281146 -2.608968 3.525647
C -2.574871 -2.402354 4.662744
O -2.771483 -3.000105 5.719436
C -1.426727 -1.432858 4.538532
C -1.854845 -0.208536 4.981323
C -1.409105 0.328295 6.316774
C -1.895815 -0.281098 7.499098
C -1.607793 0.247179 8.766286
C -0.837833 1.394274 8.855796
O -0.504250 1.944803 10.063206
C -0.369830 2.019549 7.700135
O 0.374777 3.162769 7.804613
C -0.641218 1.490986 6.444735
H -2.930040 -5.157252 3.111360
H -4.554707 -5.746204 3.544325
H -3.447118 -5.207456 4.781979
H -4.883004 -3.366196 4.596640
H -5.826440 -2.490986 2.572075
H -4.831896 -3.523121 1.562265
H -6.102178 -4.233110 2.592038
H -2.522661 -1.164144 7.446624
H -1.994075 -0.269481 9.639110
H -0.876979 1.365579 10.754869
H 0.343053 3.354040 8.764956
H -0.223639 1.979952 5.581538
C 2.059137 3.473618 2.773515
C 1.142939 2.990330 1.654911
C 1.377564 3.805038 0.384279
O -0.250308 3.111604 1.970603
C -0.708027 2.240538 2.912565
O -0.051828 1.331646 3.380715
C -2.159705 2.539772 3.304575
C -2.483968 3.842054 3.614427
C -1.357289 4.858453 3.615234
C -1.263534 5.795048 2.578001
C -0.254923 6.763656 2.592002
C 0.623605 6.818779 3.660435
O 1.627455 7.749675 3.658186
C 0.532209 5.905460 4.707922
O 1.424715 5.939893 5.738954
C -0.466539 4.927320 4.689843
H 1.751802 3.109009 3.755505
H 2.074170 4.564591 2.819640
H 3.092641 3.163190 2.601305
H 1.353564 1.944376 1.447228
H 0.771186 3.409106 -0.437209
H 2.423760 3.795712 0.089025
H 1.073037 4.849931 0.522304
H -1.955225 5.775165 1.750113
H -0.177063 7.472889 1.769878
H 2.195522 7.515919 2.902676
H 1.234017 5.204324 6.354604
H -0.575655 4.239877 5.518104
C -3.565816 6.752541 -1.700419
C -3.539409 5.411584 -0.977541
C -2.106506 4.888718 -0.961291
O -4.069759 5.620421 0.350004
C -4.460200 4.488321 0.987353
O -4.167449 3.353074 0.658873
C -5.352362 4.774367 2.136294
C -6.694517 4.838627 1.854036
C -7.690203 4.844504 2.986038
C -7.678288 3.840032 3.976919
C -8.518161 3.922983 5.101870
C -9.395074 4.998560 5.220508
O -10.138322 5.202927 6.346180
C -9.489460 5.925393 4.193193
O -10.342085 6.985558 4.302938
C -8.674105 5.846671 3.073930
H -3.019152 7.507899 -1.129091
H -4.596050 7.106662 -1.802523
H -3.133493 6.681997 -2.702965
H -4.187978 4.711886 -1.527205
H -2.011405 3.944152 -0.415195
H -1.436401 5.603489 -0.481822
H -1.737989 4.737957 -1.982988
H -6.984407 3.000430 3.907533
H -8.441295 3.161731 5.872114
H -9.925689 4.506321 6.986249
H -10.420601 7.121839 5.262914
H -8.770050 6.612615 2.309683
C -12.411451 2.675895 -2.474048
C -11.502096 3.654152 -3.204896
C -12.291147 4.877939 -3.664373
O -10.462521 4.122172 -2.330029
C -9.374243 3.318577 -2.234886
O -9.235950 2.208719 -2.712789
C -8.262137 4.135218 -1.672041
C -7.594873 4.775858 -2.592024
C -7.087332 5.423534 -3.766818
C -6.621937 4.618576 -4.814919
C -6.238682 5.201865 -6.026482
C -6.321071 6.580829 -6.175723
O -5.985157 7.204668 -7.346032
C -6.787661 7.373861 -5.125475
O -6.867777 8.732082 -5.284631
C -7.180524 6.806007 -3.920426
H -12.720118 3.086892 -1.506809
H -13.304819 2.434486 -3.060205
H -11.881924 1.739614 -2.253302
H -11.055373 3.189508 -4.098005
H -12.825467 5.332158 -2.816456
H -13.024878 4.601095 -4.428224
H -11.619593 5.630338 -4.084202
H -6.596245 3.539260 -4.702159
H -5.885973 4.565423 -6.831543
H -5.920367 6.523353 -8.033750
H -6.487092 8.893948 -6.166306
H -7.576417 7.439881 -3.126751
