496
Molecule ID: homopoly_151204
C 0.197597 -10.818820 3.136328
O 0.456244 -9.455860 2.832787
Si 1.726525 -9.105812 1.802340
C 1.750818 -7.248518 1.414494
C 0.479356 -6.705705 0.753149
C 0.556651 -5.196902 0.518889
O 0.389850 -4.428119 1.721998
C -0.892538 -4.229066 2.121342
O -1.886998 -4.800647 1.698887
C -1.020201 -3.182109 3.104207
C -1.132109 -2.170366 3.920858
O 3.129030 -9.622326 2.538624
C 3.508043 -9.033730 3.772928
O 1.498530 -9.969982 0.390411
C 2.386874 -11.039346 0.097344
H -0.236041 -11.337882 2.274119
H 1.096737 -11.345013 3.476408
H -0.530546 -10.849601 3.951150
H 1.938140 -6.711599 2.344559
H 2.610980 -7.055297 0.771569
H -0.393245 -6.949660 1.366622
H 0.340283 -7.195654 -0.216581
H 1.533056 -4.932684 0.102431
H -0.194147 -4.885010 -0.219070
H -1.365995 -2.359414 4.965295
H 2.707554 -9.094830 4.519329
H 3.817580 -7.995739 3.629838
H 4.367039 -9.586152 4.165265
H 2.351813 -11.811579 0.873744
H 2.067003 -11.493929 -0.844308
H 3.413061 -10.678514 -0.032484
C 7.250189 -1.275442 4.830054
O 6.321786 -1.166297 5.898971
Si 5.817111 0.348002 6.367237
C 4.613610 1.057974 5.088929
C 3.846699 2.302418 5.544931
C 2.540168 1.973328 6.266034
O 1.571047 1.328226 5.417839
C 0.927973 2.175586 4.569964
O 1.276983 3.325581 4.333994
C -0.387769 1.593646 4.129964
C -1.261046 2.540301 3.729567
O 5.075210 0.260983 7.860957
C 4.898656 -1.009924 8.468148
O 7.152032 1.341588 6.494702
C 7.886044 1.337441 7.708587
H 7.381132 -2.334817 4.597094
H 6.891079 -0.772936 3.924297
H 8.228921 -0.875062 5.117669
H 5.215787 1.319590 4.208077
H 3.918843 0.270546 4.777860
H 3.631357 2.892234 4.651237
H 4.470031 2.933243 6.193029
H 2.716613 1.304053 7.113887
H 2.103298 2.887384 6.688655
H -0.884676 3.554209 3.574916
H 4.407726 -0.850997 9.432681
H 5.860614 -1.497830 8.657292
H 4.252004 -1.654744 7.863212
H 7.320271 1.833858 8.505037
H 8.807606 1.905587 7.545070
H 8.166305 0.322813 8.015671
C -8.537637 10.721775 0.889332
O -7.522828 9.826068 1.315106
Si -7.086986 8.584459 0.290564
C -5.581511 7.675059 0.987773
C -4.210708 8.264852 0.627212
C -3.068069 7.507405 1.303306
O -3.228441 6.111823 1.026253
C -2.462536 5.287932 1.777987
O -1.589167 5.622205 2.559575
C -2.959306 3.892170 1.613347
C -3.082031 3.303802 0.414851
O -6.764752 9.224975 -1.209841
C -6.598739 8.347801 -2.311356
O -8.387123 7.540344 0.153070
C -8.858154 6.881549 1.321626
H -8.282720 11.209528 -0.059485
H -8.636332 11.504975 1.647297
H -9.506147 10.214639 0.804170
H -5.686376 7.623089 2.076985
H -5.637673 6.646158 0.613945
H -4.073353 8.205912 -0.459581
H -4.153918 9.327589 0.902543
H -3.104744 7.684257 2.386134
H -2.101829 7.851512 0.912834
H -3.585572 2.338462 0.379893
H -5.791609 7.624214 -2.139169
H -6.329131 8.949297 -3.185673
H -7.535650 7.823730 -2.538265
H -8.085012 6.235896 1.752355
H -9.214153 7.598426 2.069377
H -9.703404 6.251764 1.031532
C 2.068547 7.763096 -10.178254
O 1.233723 6.947439 -9.370412
Si -0.423296 7.079942 -9.530525
C -1.225025 7.236308 -7.814226
C -0.956589 6.056813 -6.884440
C -1.486000 6.303468 -5.481148
O -1.176876 5.137500 -4.711256
C -1.374144 5.267472 -3.377744
O -1.922551 6.221084 -2.836528
C -0.866358 4.079829 -2.611809
C 0.103670 3.236555 -3.039539
O -0.995928 5.730407 -10.327203
C -0.291744 4.504007 -10.196868
O -0.782651 8.430763 -10.443139
C -2.003774 8.455852 -11.165374
H 1.787700 7.721636 -11.237351
H 3.092434 7.388530 -10.090319
H 2.052521 8.800358 -9.823027
H -0.851745 8.164225 -7.361324
H -2.308133 7.356146 -7.949752
H 0.119302 5.853149 -6.826719
H -1.403816 5.139808 -7.287368
H -0.996353 7.178895 -5.041584
H -2.571120 6.454365 -5.493544
H 0.405447 2.418841 -2.383885
H -0.838769 3.739538 -10.758112
H 0.716196 4.573158 -10.621190
H -0.241486 4.177474 -9.153265
H -2.866743 8.262169 -10.516924
H -2.122098 9.457114 -11.591318
H -1.981362 7.738821 -11.994077
C -8.029770 5.425487 -4.857734
O -7.319332 4.402384 -5.538293
Si -6.631991 4.768048 -7.015628
C -5.291554 3.517362 -7.447811
C -4.089772 3.477298 -6.498796
C -3.169784 2.318327 -6.862351
O -2.024839 2.303282 -6.001770
C -1.415119 1.090136 -5.970209
O -1.778915 0.090540 -6.572531
C -0.193125 1.108130 -5.098241
C -0.022353 -0.050027 -4.432057
O -6.002484 6.311597 -6.947203
C -5.654627 6.955585 -8.161425
O -7.842840 4.746381 -8.166570
C -8.677306 3.600641 -8.249257
H -7.336804 6.173513 -4.459407
H -8.554554 4.968743 -4.013393
H -8.778002 5.906650 -5.498169
H -4.937304 3.736937 -8.460426
H -5.760668 2.528224 -7.485425
H -4.416664 3.365152 -5.459504
H -3.539994 4.423848 -6.539159
H -3.740294 1.384953 -6.781048
H -2.817528 2.433850 -7.892156
H -0.858868 -0.752675 -4.494692
H -4.927307 6.373649 -8.737315
H -6.540853 7.161872 -8.770453
H -5.189681 7.913864 -7.913989
H -9.386545 3.757931 -9.066669
H -8.101451 2.697149 -8.476171
H -9.255344 3.457812 -7.329859
C -4.782180 -5.911033 -5.439512
O -4.370773 -5.347802 -4.209468
Si -3.753582 -6.322237 -3.007856
C -1.883791 -6.002117 -2.819450
C -1.069900 -6.187797 -4.106386
C 0.429871 -6.284005 -3.836920
O 0.917276 -5.174727 -3.064289
C 1.228353 -4.075613 -3.799511
O 1.087645 -3.945747 -5.005302
C 1.686460 -2.963426 -2.903744
C 2.748906 -3.245015 -2.134179
O -4.580231 -5.978595 -1.600283
C -3.976290 -6.282525 -0.354792
O -3.978406 -7.929058 -3.397887
C -5.180792 -8.581445 -3.019803
H -5.075565 -5.095102 -6.109150
H -5.656038 -6.556808 -5.305204
H -3.968946 -6.464651 -5.921542
H -1.516273 -6.693286 -2.048890
H -1.743547 -4.983391 -2.437260
H -1.378357 -7.099298 -4.634017
H -1.279308 -5.346687 -4.780364
H 0.993335 -6.396589 -4.768849
H 0.620327 -7.187379 -3.252376
H 3.211335 -4.231019 -2.235839
H -2.997686 -5.805991 -0.257249
H -3.880528 -7.365391 -0.217322
H -4.621532 -5.893332 0.439748
H -5.345034 -8.538990 -1.938407
H -6.046028 -8.162684 -3.545793
H -5.093758 -9.636228 -3.295986
C 1.571626 6.591273 2.433773
O 2.971302 6.753284 2.242491
Si 3.747751 5.729556 1.176267
C 4.121098 4.060529 1.964229
C 4.641694 2.951028 1.040939
C 3.553390 2.364719 0.125577
O 3.719348 0.942802 -0.009527
C 3.286209 0.264235 1.081256
O 2.759914 0.773688 2.072214
C 3.551157 -1.199472 0.994533
C 4.080256 -1.640459 2.152371
O 5.171886 6.453380 0.691614
C 5.893679 7.223827 1.639320
O 2.771344 5.525683 -0.159941
C 2.722672 6.573174 -1.118671
H 1.253687 7.293402 3.209236
H 1.323777 5.578809 2.769135
H 1.019783 6.833070 1.518217
H 3.214580 3.711877 2.465435
H 4.866974 4.236083 2.747812
H 5.072087 2.160469 1.672325
H 5.474087 3.320716 0.428270
H 3.633652 2.800492 -0.875501
H 2.536189 2.590652 0.472286
H 4.540651 -0.909296 2.822091
H 6.173591 6.629055 2.515611
H 6.816671 7.574475 1.165586
H 5.324835 8.107537 1.945988
H 3.574893 6.496464 -1.802391
H 1.798836 6.461633 -1.692536
H 2.695181 7.567663 -0.659171
C -3.271687 -8.195029 2.888256
O -3.868097 -8.414220 4.154711
Si -3.700465 -7.274408 5.362370
C -2.073916 -6.302310 5.200784
C -0.828463 -7.095921 5.606984
C 0.428981 -6.649535 4.878596
O 0.698170 -5.253805 5.058341
C 1.996648 -4.929331 4.791088
O 2.862105 -5.700472 4.404818
C 2.200183 -3.461839 4.898134
C 1.832512 -2.719847 5.968193
O -3.712582 -8.077685 6.829644
C -4.605855 -9.170851 6.991140
O -5.024923 -6.265489 5.334908
C -5.160709 -5.327883 4.282122
H -2.179788 -8.247686 2.952026
H -3.607602 -8.988225 2.212019
H -3.577985 -7.235833 2.456092
H -1.996619 -5.972346 4.163257
H -2.143107 -5.399348 5.816990
H -0.960717 -8.166687 5.407486
H -0.685557 -6.995987 6.686166
H 0.286718 -6.822645 3.811042
H 1.262644 -7.261812 5.236001
H 2.033393 -1.646554 5.870249
H -5.636722 -8.894547 6.741952
H -4.583403 -9.470601 8.043402
H -4.282817 -10.028264 6.391311
H -5.305419 -5.829405 3.318822
H -6.050452 -4.721582 4.478119
H -4.301989 -4.649170 4.230083
C -6.635366 0.802768 -3.602041
O -5.914846 0.214739 -2.526394
Si -4.650691 -0.809751 -2.895991
C -3.051678 -0.261471 -2.043653
C -3.020331 -0.406395 -0.522648
C -1.670507 0.041321 0.031830
O -1.716435 0.001680 1.468074
C -0.629387 -0.559404 2.049683
O 0.348580 -1.006441 1.461099
C -0.863085 -0.796845 3.495839
C -0.720594 0.198896 4.393954
O -5.028392 -2.353404 -2.398430
C -6.177122 -2.574013 -1.602191
O -4.425187 -0.816792 -4.546926
C -4.097029 -2.039735 -5.186351
H -7.098954 0.038804 -4.236845
H -7.440163 1.411198 -3.180416
H -5.993244 1.458859 -4.198947
H -2.248509 -0.869257 -2.473509
H -2.850615 0.775689 -2.328137
H -3.191329 -1.451004 -0.230158
H -3.833298 0.160399 -0.055837
H -0.886406 -0.599141 -0.389474
H -1.443690 1.067384 -0.262497
H -0.801040 -0.029776 5.455804
H -6.099466 -2.050892 -0.642868
H -6.247952 -3.645585 -1.393646
H -7.092254 -2.274939 -2.126413
H -4.953230 -2.720902 -5.172745
H -3.221058 -2.516086 -4.732058
H -3.860105 -1.824248 -6.230823
C -0.067018 6.329188 7.330672
O -0.294910 6.039972 8.702501
Si -0.733086 4.492117 9.147590
C -1.990126 3.759419 7.922339
C -2.474348 2.336480 8.245675
C -3.430197 1.806733 7.178092
O -2.756654 1.924307 5.919172
C -3.520627 1.907596 4.804281
O -4.693329 1.569675 4.742272
C -2.718347 2.479373 3.669501
C -3.454878 3.169101 2.774684
O -1.421727 4.534338 10.662547
C -0.861264 5.357720 11.669247
O 0.629262 3.531746 9.192078
C 1.881386 4.106723 9.525584
H -1.010082 6.335820 6.774215
H 0.368226 7.330930 7.262561
H 0.636511 5.625064 6.872353
H -1.504995 3.772254 6.939607
H -2.848914 4.437799 7.867841
H -1.607439 1.666870 8.298555
H -2.966564 2.309744 9.223919
H -4.356123 2.388087 7.172416
H -3.658432 0.752994 7.360076
H -4.543619 3.186980 2.863029
H 0.111066 4.975285 11.993697
H -0.771540 6.400874 11.344740
H -1.529559 5.335641 12.535034
H 2.630029 3.305801 9.534826
H 1.868736 4.563389 10.521066
H 2.195707 4.844210 8.776369
C -7.646711 0.185039 0.641624
O -7.952049 1.315929 1.441340
Si -9.036268 2.441417 0.854467
C -8.284437 3.341222 -0.658634
C -6.798520 3.648634 -0.494120
C -6.167042 4.324119 -1.709081
O -4.813238 4.615786 -1.336822
C -3.832953 3.862035 -1.895131
O -3.888126 3.212911 -2.924957
C -2.710684 3.774417 -0.910819
C -1.413218 3.853475 -1.271750
O -9.375022 3.543368 2.062109
C -8.676432 3.448805 3.293528
O -10.444787 1.652532 0.445034
C -11.204061 1.040791 1.476227
H -8.457039 -0.550601 0.689503
H -6.740636 -0.278708 1.044250
H -7.452293 0.455118 -0.400973
H -8.848811 4.264934 -0.827043
H -8.437204 2.702894 -1.533132
H -6.237256 2.727990 -0.284149
H -6.640967 4.285444 0.387563
H -6.230678 3.689340 -2.599541
H -6.667179 5.271729 -1.924964
H -0.649652 3.663638 -0.516787
H -9.012405 4.267809 3.937417
H -7.596699 3.558261 3.146620
H -8.899994 2.505816 3.804866
H -12.018073 0.476659 1.008909
H -11.650162 1.791236 2.138663
H -10.603543 0.333951 2.061013
C 7.521570 9.922106 -4.303161
O 6.413087 9.050940 -4.152942
Si 6.540371 7.462104 -4.643398
C 5.052257 7.013801 -5.739712
C 4.443556 5.634653 -5.468166
C 3.129326 5.432938 -6.218715
O 2.437572 4.254830 -5.762565
C 1.713730 4.423073 -4.621646
O 1.736085 5.429451 -3.927052
C 0.848961 3.234503 -4.301505
C 0.716581 2.236225 -5.199397
O 6.573390 6.477771 -3.296485
C 6.944411 7.035579 -2.049536
O 7.969880 7.258527 -5.480166
C 8.532832 5.956842 -5.564174
H 8.428437 9.511294 -3.843941
H 7.695116 10.153131 -5.359748
H 7.284499 10.857645 -3.787285
H 4.290366 7.786402 -5.577186
H 5.357516 7.081244 -6.790888
H 5.145583 4.846791 -5.766012
H 4.279478 5.497286 -4.393117
H 3.327620 5.294428 -7.287275
H 2.475738 6.309619 -6.131450
H 1.221156 2.293354 -6.164097
H 6.255275 7.827273 -1.739077
H 7.973268 7.409117 -2.069404
H 6.896560 6.243013 -1.301248
H 8.876804 5.611674 -4.582250
H 7.825714 5.237856 -5.993086
H 9.403042 6.008914 -6.226375
C 8.598028 0.124895 -1.554293
O 8.372517 0.460228 -2.915680
Si 7.661534 1.920784 -3.300803
C 5.869020 2.013120 -2.655927
C 4.787669 2.327882 -3.698918
C 4.264053 1.095064 -4.434780
O 3.162162 0.524893 -3.702150
C 2.486330 -0.415969 -4.414828
O 2.837989 -0.885619 -5.486329
C 1.152322 -0.659543 -3.793619
C 0.905943 -1.740461 -3.024482
O 7.651485 2.017810 -4.974306
C 8.905318 2.017176 -5.639599
O 8.632396 3.160926 -2.756774
C 8.535579 3.628771 -1.426942
H 8.816283 -0.945365 -1.499671
H 9.470661 0.661712 -1.171022
H 7.726087 0.325608 -0.925961
H 5.626132 1.082425 -2.132174
H 5.847773 2.809135 -1.908281
H 3.947559 2.819837 -3.193640
H 5.185371 3.037402 -4.429572
H 5.043247 0.344748 -4.571859
H 3.905367 1.413877 -5.420984
H -0.122210 -1.926607 -2.706085
H 9.402303 1.045228 -5.539191
H 9.563716 2.817280 -5.281619
H 8.721801 2.195130 -6.704581
H 8.774958 2.847403 -0.697558
H 7.546028 4.043602 -1.213425
H 9.266407 4.434212 -1.300642
C 8.228272 -0.325403 -8.500233
O 7.880998 -1.667983 -8.782841
Si 6.950151 -2.532692 -7.705070
C 7.162806 -1.960420 -5.897890
C 6.145051 -2.592559 -4.947680
C 6.340340 -2.192828 -3.488650
O 5.178600 -2.649332 -2.783800
C 4.912806 -2.064444 -1.582841
O 5.685303 -1.373916 -0.945416
C 3.488691 -2.395484 -1.209166
C 2.929018 -1.992995 -0.047917
O 7.409434 -4.135220 -7.814417
C 7.054908 -4.852219 -8.987659
O 5.353413 -2.426453 -8.173821
C 4.712989 -1.163608 -8.209541
H 7.346409 0.292159 -8.296967
H 8.730257 0.087302 -9.380674
H 8.927717 -0.275633 -7.660478
H 7.060869 -0.869644 -5.862449
H 8.182627 -2.201729 -5.578353
H 5.126483 -2.327974 -5.257850
H 6.182844 -3.682805 -5.026777
H 6.414401 -1.110045 -3.403532
H 7.233694 -2.663346 -3.065583
H 1.903219 -2.275077 0.166750
H 7.470706 -4.383633 -9.888439
H 7.477445 -5.859697 -8.907975
H 5.965991 -4.952947 -9.079066
H 5.035266 -0.595709 -9.090665
H 3.633700 -1.328409 -8.288946
H 4.898578 -0.574634 -7.303193
C 3.210604 -7.776151 -2.007935
O 3.997186 -6.722626 -1.474645
Si 5.633232 -6.991378 -1.286806
C 6.421925 -5.548308 -0.343885
C 6.684851 -5.762487 1.154704
C 5.427578 -5.942989 2.006655
O 4.604286 -4.769722 1.951062
C 4.721431 -3.943447 3.020969
O 5.509585 -4.047360 3.949854
C 3.735409 -2.849359 2.898937
C 2.694370 -2.701210 3.742447
O 6.296468 -7.190068 -2.800366
C 6.274471 -6.096786 -3.702479
O 5.812278 -8.414966 -0.437278
C 6.969036 -9.202690 -0.649794
H 3.324596 -7.829000 -3.096489
H 3.441840 -8.748048 -1.557686
H 2.165588 -7.559665 -1.780510
H 5.806517 -4.656285 -0.494382
H 7.386466 -5.346925 -0.824327
H 7.336742 -6.633854 1.296228
H 7.238789 -4.889637 1.521339
H 5.708224 -6.199040 3.034276
H 4.826260 -6.781483 1.647594
H 2.132182 -1.770345 3.625309
H 6.635018 -6.446229 -4.674603
H 6.945743 -5.301358 -3.360394
H 5.260678 -5.704053 -3.842894
H 6.981292 -9.620862 -1.662347
H 7.885410 -8.631132 -0.462585
H 6.940741 -10.037935 0.056880
C -5.713727 -6.359419 9.175474
O -5.483210 -5.396465 10.190313
Si -4.530573 -4.073383 9.850056
C -2.683778 -4.427907 10.118310
C -2.077110 -5.569799 9.293532
C -0.545895 -5.516288 9.272139
O -0.152966 -4.317191 8.585059
C 0.992628 -4.344420 7.851854
O 1.730424 -5.302412 7.700599
C 1.204446 -2.990713 7.252480
C 0.787379 -1.950867 7.931252
O -4.994066 -2.818330 10.857566
C -6.029516 -3.046451 11.801618
O -4.804355 -3.592975 8.273758
C -6.019835 -2.927114 7.970311
H -4.782471 -6.850628 8.885223
H -6.384861 -7.122534 9.579890
H -6.204830 -5.921550 8.298831
H -2.166162 -3.486135 9.892667
H -2.522227 -4.627262 11.183887
H -2.401651 -6.534031 9.704309
H -2.444994 -5.509697 8.263436
H -0.149144 -6.412235 8.781719
H -0.152839 -5.472033 10.294687
H 0.434734 -1.128469 8.512504
H -6.129168 -2.146448 12.415892
H -6.986866 -3.220951 11.299489
H -5.790605 -3.880601 12.469267
H -6.895642 -3.470918 8.344034
H -6.012139 -1.906944 8.370103
H -6.106115 -2.864247 6.881217
