256
Molecule ID: homopoly_75096
O -6.349130 -1.509560 -3.459844
C -6.252144 -2.443281 -4.238777
O -7.146966 -3.439090 -4.402914
C -8.293931 -3.376727 -3.498448
C -9.429512 -2.584973 -4.085321
F -10.475313 -2.487786 -3.237117
F -9.878724 -3.102457 -5.241904
F -9.029021 -1.313978 -4.351505
C -8.798587 -4.773218 -3.230780
F -9.813342 -4.800686 -2.340789
F -9.207953 -5.397882 -4.352407
F -7.798422 -5.526813 -2.699135
C -5.052847 -2.616087 -5.020620
C -3.912077 -2.639199 -5.653853
H -7.988357 -2.934214 -2.541132
H -3.411982 -3.595737 -5.753426
O 1.369017 -0.507531 -5.695456
C 0.171113 -0.373313 -5.881590
O -0.406590 -0.033353 -7.055357
C 0.454226 0.497844 -8.082283
C -0.336376 1.413290 -8.997744
F -1.353042 0.777117 -9.618364
F 0.435132 1.992115 -9.945434
F -0.882939 2.425162 -8.277681
C 1.099369 -0.539826 -8.957572
F 1.753690 -1.456194 -8.210664
F 2.016173 0.013509 -9.781787
F 0.212723 -1.217637 -9.711358
C -0.889290 -0.442055 -4.816836
C -0.891845 0.349621 -3.714936
H 1.209470 1.130504 -7.610392
H -1.764782 0.311853 -3.065494
O -0.425226 4.835597 -3.111793
C -1.281811 4.230703 -2.477880
O -2.590901 4.553476 -2.470730
C -2.917997 5.696686 -3.318579
C -2.811185 6.996016 -2.582940
F -1.591498 7.104613 -1.995482
F -2.940966 8.044849 -3.410322
F -3.731876 7.118826 -1.605526
C -4.322017 5.582835 -3.837335
F -4.461566 4.463324 -4.598176
F -5.225393 5.500182 -2.840446
F -4.657485 6.624996 -4.636058
C -0.980660 2.984803 -1.706379
C -1.402859 2.680578 -0.459482
H -2.249397 5.719206 -4.193498
H -1.038597 1.755121 -0.021771
O -2.650285 2.741330 4.411759
C -2.532634 1.735550 3.719119
O -2.043025 0.568203 4.193957
C -1.679486 0.611378 5.606776
C -0.254586 1.042913 5.801332
F 0.014648 2.192710 5.132471
F 0.041192 1.267015 7.097896
F 0.628603 0.129836 5.344231
C -1.802523 -0.749157 6.221962
F -1.049064 -1.664443 5.595692
F -1.469565 -0.735555 7.525379
F -3.100820 -1.163180 6.146607
C -2.830774 1.695316 2.254472
C -3.249751 0.620128 1.558368
H -2.356388 1.279806 6.147409
H -3.411669 0.825763 0.503990
O -5.825784 -1.085749 -0.609096
C -4.675657 -0.874368 -0.986433
O -4.315609 0.140839 -1.812829
C -5.403748 1.059176 -2.153592
C -5.076900 1.761551 -3.433812
F -3.834134 2.302942 -3.386613
F -5.065806 0.888252 -4.459003
F -5.948573 2.727856 -3.747392
C -5.614054 2.138651 -1.120617
F -4.585051 3.009300 -1.069995
F -6.734826 2.846695 -1.354547
F -5.728739 1.618242 0.123736
C -3.487062 -1.594595 -0.403348
C -2.627278 -2.198049 -1.241150
H -6.340285 0.514712 -2.266556
H -2.773408 -2.050395 -2.304607
O -1.733289 -5.780882 0.819455
C -0.550354 -5.550013 1.023428
O 0.306962 -6.426261 1.610232
C -0.283984 -7.679202 2.045892
C -0.882009 -7.567618 3.429636
F -1.777970 -6.553924 3.497059
F -1.533087 -8.697501 3.782226
F 0.057513 -7.319325 4.372217
C 0.785793 -8.739504 2.137976
F 1.323801 -8.965336 0.912691
F 1.806140 -8.370367 2.949831
F 0.304207 -9.920885 2.580794
C 0.110853 -4.231705 0.646201
C 1.398775 -4.068508 1.039645
H -1.047586 -8.006030 1.330592
H 1.941926 -4.881645 1.521223
O 0.441485 -3.584592 3.806202
C 1.604006 -3.306111 4.046234
O 2.415893 -3.967037 4.901311
C 1.794738 -4.960570 5.773614
C 2.792642 -6.020473 6.118807
F 3.297479 -6.586879 4.997745
F 3.842187 -5.529913 6.811893
F 2.252857 -7.019801 6.849951
C 1.369954 -4.332339 7.078270
F 0.356679 -3.455113 6.875934
F 0.926000 -5.229313 7.982324
F 2.373662 -3.627914 7.647134
C 2.391870 -2.203897 3.417975
C 2.921901 -1.369714 4.335349
H 0.933576 -5.418405 5.273348
H 2.678218 -1.497892 5.393017
O 6.516023 0.463855 2.318427
C 6.904583 0.838210 3.415531
O 7.940708 1.692430 3.632066
C 8.726614 2.031421 2.447554
C 9.416831 3.351865 2.672621
F 10.214256 3.331985 3.764743
F 10.164608 3.726391 1.616931
F 8.505229 4.332045 2.878098
C 9.807754 1.007754 2.217629
F 10.582561 1.299870 1.151156
F 10.613154 0.867992 3.294491
F 9.269544 -0.219256 1.984279
C 6.303393 0.363411 4.717456
C 6.934957 0.622172 5.890557
H 8.079501 2.113931 1.562606
H 7.841060 1.214130 5.851907
O -2.998534 0.871450 -6.382816
C -3.576402 -0.199976 -6.388768
O -4.744457 -0.450974 -7.028954
C -5.332783 0.628017 -7.791019
C -5.250903 0.324597 -9.261014
F -5.632819 1.376517 -10.006452
F -6.009673 -0.742768 -9.612863
F -3.973341 0.029637 -9.609275
C -6.787475 0.787982 -7.448521
F -6.941937 1.127215 -6.140303
F -7.495780 -0.347584 -7.645799
F -7.371173 1.768300 -8.170797
C -3.096159 -1.426406 -5.661979
C -1.910662 -1.461850 -5.006816
H -4.826932 1.581136 -7.589420
H -1.594840 -2.418676 -4.588371
O 2.202587 0.095562 -2.609218
C 1.612613 0.848920 -3.366944
O 2.154769 1.640239 -4.323906
C 3.586249 1.466755 -4.536154
C 4.364240 2.341712 -3.573509
F 4.091602 2.052936 -2.278380
F 4.085949 3.650524 -3.748594
F 5.696416 2.179179 -3.724955
C 3.951843 1.930697 -5.924815
F 3.315570 1.186494 -6.870719
F 3.602988 3.213858 -6.145319
F 5.271605 1.816776 -6.174012
C 0.169264 1.208925 -3.185791
C 0.117444 2.212764 -2.282028
H 3.860708 0.404640 -4.409352
H 1.079071 2.664303 -1.979513
O -3.170206 5.674204 0.753768
C -2.192901 4.985866 0.489831
O -0.905899 5.423507 0.490024
C -0.645451 6.451337 1.487711
C -0.863295 7.872934 1.026124
F -2.161324 8.134743 0.748123
F -0.497311 8.751731 1.995718
F -0.157863 8.177120 -0.089532
C 0.803315 6.351435 1.880750
F 1.126042 5.048021 2.126109
F 1.655541 6.753176 0.914543
F 1.081942 7.021597 3.010787
C -2.194963 3.474409 0.478388
C -2.779414 3.020461 1.615511
H -1.256104 6.249635 2.370411
H -3.261354 3.760378 2.270723
O -4.080298 -2.302366 3.714182
C -4.148201 -1.185448 3.223388
O -4.897234 -0.169887 3.710368
C -5.827960 -0.553310 4.772170
C -6.107589 0.634734 5.640724
F -4.933671 1.088971 6.177143
F -6.918141 0.331514 6.689945
F -6.661130 1.661107 4.973856
C -7.158645 -1.017285 4.221323
F -6.992003 -2.079729 3.388551
F -7.993037 -1.417512 5.204004
F -7.783828 -0.054799 3.508653
C -3.546721 -0.767851 1.929383
C -3.549936 -1.772267 1.029481
H -5.401020 -1.352897 5.394718
H -3.819999 -2.780050 1.341021
O -3.008030 -4.729122 -2.303929
C -1.933940 -4.522791 -1.759743
O -0.834976 -5.314889 -1.915314
C -1.115271 -6.525698 -2.684173
C -0.136667 -7.607301 -2.316533
F -0.284910 -7.925080 -1.002611
F -0.345030 -8.740334 -3.009870
F 1.142594 -7.238385 -2.480212
C -1.030234 -6.314054 -4.176986
F -1.658961 -5.172977 -4.563306
F -1.628833 -7.327204 -4.838316
F 0.230010 -6.220170 -4.640632
C -1.679674 -3.284747 -0.918813
C -0.725875 -3.184848 0.036938
H -2.111549 -6.898423 -2.428037
H -0.593836 -2.231671 0.541754
O 3.638225 -1.568522 -0.511570
C 2.882580 -2.514448 -0.370896
O 2.519642 -3.373918 -1.348687
C 3.090509 -3.070084 -2.646700
C 2.168840 -3.564993 -3.732586
F 2.549537 -3.166751 -4.956634
F 2.067168 -4.904559 -3.731660
F 0.906447 -3.088273 -3.538112
C 4.442443 -3.693499 -2.863363
F 4.398539 -5.038410 -2.800711
F 5.316719 -3.287600 -1.908357
F 4.964056 -3.331735 -4.053359
C 2.256529 -2.884254 0.935274
C 2.655168 -2.127915 1.983333
H 3.193763 -1.989074 -2.768271
H 3.335709 -1.302927 1.746498
O 2.259690 1.025545 2.936177
C 3.364561 0.969524 3.460586
O 4.233925 1.994064 3.513849
C 3.834759 3.223747 2.842565
C 4.750938 3.495803 1.677419
F 6.047560 3.527406 2.046477
F 4.626987 2.524531 0.742190
F 4.469180 4.660995 1.061797
C 3.960324 4.378509 3.789162
F 3.559616 5.542611 3.238368
F 3.173049 4.174530 4.872910
F 5.215055 4.538297 4.237423
C 3.875116 -0.273170 4.136137
C 5.109751 -0.487135 4.641731
H 2.808414 3.167603 2.475276
H 5.289906 -1.459552 5.117038
O 7.381221 -0.083292 9.504792
C 7.627534 0.163672 8.335272
O 8.867231 0.433785 7.847240
C 9.934159 0.411224 8.838526
C 10.572505 -0.946981 8.923860
F 11.552284 -0.995866 9.855391
F 9.664333 -1.890047 9.260535
F 11.109745 -1.326088 7.741981
C 11.013576 1.380125 8.447861
F 10.499085 2.636159 8.377221
F 12.008013 1.427384 9.353112
F 11.555139 1.109135 7.245854
C 6.593046 0.205557 7.252405
C 5.361003 -0.052150 7.588004
H 9.554837 0.715408 9.823063
H 4.353145 -0.265339 7.883956
