400
Molecule ID: homopoly_1491214
C -13.045068 -2.927078 10.351685
O -11.786567 -3.507090 9.988280
C -11.425269 -3.277537 8.699001
O -12.060385 -2.647036 7.859208
C -10.160335 -3.886194 8.372485
C -9.016926 -4.457156 8.086955
C -8.571282 -5.470352 9.046009
C -8.820895 -6.825920 8.836259
N -8.416613 -7.813953 9.666062
C -7.720161 -7.463756 10.766345
C -7.258156 -8.452614 11.617301
C -6.505531 -8.145123 12.758415
C -6.230442 -6.819471 13.067637
C -6.704738 -5.803269 12.241902
C -7.445362 -6.118626 11.087432
C -7.892088 -5.121407 10.214197
H -13.276360 -3.247433 11.367706
H -12.971479 -1.834028 10.338274
H -13.843946 -3.272123 9.688596
H -9.351038 -7.165807 7.945041
H -7.465427 -9.496377 11.378254
H -6.137123 -8.942684 13.393394
H -5.645513 -6.571612 13.951945
H -6.481269 -4.772428 12.485704
H -7.667729 -4.081165 10.424735
C -6.965462 -5.594027 1.976828
O -6.671292 -4.547666 2.898764
C -6.694096 -4.898624 4.196784
O -6.937466 -6.039487 4.579532
C -6.521630 -3.717117 5.169723
C -6.126173 -2.429500 4.849558
C -6.181144 -1.205905 5.786671
C -5.661441 0.024484 5.363283
N -5.718192 1.215684 6.023081
C -6.318491 1.238824 7.220178
C -6.415145 2.430485 7.930358
C -6.995761 2.478822 9.201173
C -7.526281 1.328274 9.766838
C -7.461977 0.129572 9.055950
C -6.860900 0.082474 7.783900
C -6.790858 -1.118466 7.044226
H -6.245246 -6.407652 2.074787
H -6.892237 -5.188211 0.968169
H -7.986242 -5.952585 2.129923
H -5.151138 0.132659 4.407562
H -6.022736 3.340048 7.489716
H -7.048225 3.422015 9.740586
H -7.978322 1.352835 10.752705
H -7.885481 -0.768444 9.500730
H -7.272421 -1.962248 7.502233
C -2.024631 -5.959151 1.936249
O -2.275558 -4.565262 2.135516
C -3.332516 -4.319170 2.946680
O -4.097655 -5.170750 3.378354
C -3.443142 -2.850603 3.277701
C -2.439195 -2.369588 4.075750
C -1.472797 -3.420665 4.673802
C -0.096046 -3.351167 4.515274
N 0.814198 -4.237847 5.008418
C 0.347887 -5.265804 5.723659
C 1.240085 -6.216107 6.208638
C 0.803106 -7.313952 6.955118
C -0.553210 -7.468608 7.224930
C -1.457246 -6.524291 6.743655
C -1.020469 -5.421687 5.999944
C -1.921099 -4.460671 5.499271
H -2.037290 -6.504382 2.887338
H -2.765459 -6.374206 1.246503
H -1.031085 -6.074307 1.505272
H 0.364541 -2.528257 3.988095
H 2.302820 -6.110375 5.999025
H 1.517638 -8.052837 7.321610
H -0.911333 -8.317837 7.794635
H -2.513380 -6.659601 6.933460
H -2.971715 -4.554405 5.747429
C -3.021057 4.367833 3.100018
O -2.258311 3.163719 3.081858
C -2.955129 2.069466 2.705871
O -4.095334 2.033255 2.270270
C -2.085866 0.840606 2.765690
C -1.424877 0.573817 1.600449
C -0.739181 -0.727420 1.397802
C 0.451605 -1.063541 2.004588
N 1.157703 -2.193495 1.743047
C 0.679860 -3.048826 0.824085
C 1.366139 -4.222172 0.544494
C 0.940245 -5.102242 -0.451521
C -0.226879 -4.837273 -1.158854
C -0.950621 -3.679816 -0.875620
C -0.511731 -2.789473 0.122407
C -1.218363 -1.619830 0.432916
H -2.347470 5.199839 3.334208
H -3.782590 4.319988 3.885672
H -3.486687 4.570733 2.129713
H 0.918474 -0.408925 2.737063
H 2.275193 -4.439388 1.098662
H 1.518475 -5.996869 -0.668674
H -0.568918 -5.519926 -1.928871
H -1.860835 -3.467803 -1.434013
H -2.107302 -1.377843 -0.143319
C 0.159272 0.137460 -4.536595
O 0.192162 1.288346 -3.692742
C -0.213174 1.070096 -2.422042
O -0.571449 -0.009546 -1.971352
C -0.120814 2.330232 -1.571386
C -0.194985 3.580249 -2.118756
C -1.118070 3.863812 -3.305798
C -1.032546 5.052183 -4.045186
N -1.873606 5.444206 -5.033925
C -2.902484 4.649026 -5.333792
C -3.816888 5.040688 -6.302689
C -4.923340 4.246181 -6.622965
C -5.116097 3.028554 -5.972800
C -4.204649 2.620435 -5.001116
C -3.104128 3.424758 -4.678392
C -2.194753 3.053390 -3.670372
H 1.047041 0.160705 -5.169356
H -0.735830 0.202702 -5.154215
H 0.160142 -0.810492 -3.993724
H -0.253995 5.788158 -3.855009
H -3.681898 5.997020 -6.802719
H -5.631984 4.581526 -7.378095
H -5.975791 2.411405 -6.212638
H -4.362267 1.670481 -4.494750
H -2.396989 2.115634 -3.167047
C 1.368489 3.652143 -5.717837
O 1.801900 4.318134 -4.528972
C 2.443920 3.527504 -3.641716
O 2.728384 2.353309 -3.819374
C 2.831407 4.333909 -2.443758
C 4.164911 4.288849 -2.109700
C 4.689250 5.101100 -0.965272
C 5.562177 6.169267 -1.172317
N 6.067285 6.968540 -0.207997
C 5.674993 6.747520 1.055293
C 6.130474 7.589579 2.053626
C 5.730420 7.435103 3.384390
C 4.842129 6.418306 3.720252
C 4.374101 5.558789 2.729148
C 4.790032 5.702146 1.392054
C 4.320238 4.865291 0.360075
H 2.130106 2.970271 -6.105865
H 0.454168 3.088087 -5.535517
H 1.174509 4.412767 -6.470770
H 5.870587 6.465983 -2.167355
H 6.803682 8.399128 1.788315
H 6.107376 8.109715 4.149898
H 4.505531 6.300794 4.747071
H 3.656396 4.792003 3.005981
H 3.644742 4.042217 0.603357
C 10.139313 1.487830 -4.809257
O 8.716427 1.351963 -4.739056
C 8.032231 2.526624 -4.677304
O 8.547455 3.633986 -4.584092
C 6.550035 2.249168 -4.595785
C 6.041233 1.121807 -5.208802
C 5.495629 0.166715 -4.207886
C 4.157657 -0.179608 -4.097673
N 3.654922 -1.025081 -3.161401
C 4.502742 -1.546984 -2.254801
C 4.044532 -2.368035 -1.223820
C 4.906837 -2.903310 -0.253745
C 6.273513 -2.661430 -0.329215
C 6.761317 -1.844066 -1.338860
C 5.888687 -1.282269 -2.290973
C 6.369763 -0.437678 -3.296778
H 10.531873 1.646711 -3.802626
H 10.438933 2.295803 -5.488334
H 10.535633 0.544261 -5.193652
H 3.419210 0.233549 -4.774115
H 2.972218 -2.546566 -1.149789
H 4.498840 -3.524654 0.538830
H 6.942467 -3.089223 0.413900
H 7.831725 -1.653364 -1.390251
H 7.440328 -0.245313 -3.344243
C 8.349088 -3.572147 -5.093154
O 7.677220 -2.569642 -5.857734
C 6.331412 -2.602362 -5.713248
O 5.742265 -3.286590 -4.888361
C 5.677030 -1.736459 -6.765223
C 4.528835 -2.208066 -7.344278
C 3.924965 -3.510847 -6.950666
C 4.377591 -4.718732 -7.481662
N 3.771951 -5.913113 -7.273427
C 2.671848 -5.940427 -6.508345
C 2.023600 -7.147741 -6.319273
C 0.853063 -7.238220 -5.561559
C 0.324290 -6.095621 -4.974389
C 0.966678 -4.870258 -5.136164
C 2.138024 -4.780480 -5.903830
C 2.789900 -3.558239 -6.133940
H 8.057863 -4.571279 -5.456882
H 8.124654 -3.484034 -4.024386
H 9.425820 -3.450255 -5.235789
H 5.245679 -4.754645 -8.141437
H 2.426869 -8.046050 -6.785448
H 0.355570 -8.197403 -5.443512
H -0.594629 -6.160808 -4.394578
H 0.542434 -3.986125 -4.672692
H 2.407776 -2.644977 -5.684151
C -10.771181 -4.198788 4.122802
O -9.879249 -4.595541 5.168533
C -9.226097 -3.561339 5.744749
O -9.321160 -2.382870 5.457436
C -8.334890 -4.098931 6.823164
C -6.998653 -4.141492 6.520623
C -5.990660 -4.746721 7.435189
C -5.122334 -3.989186 8.217311
N -4.235176 -4.511103 9.104219
C -4.160281 -5.847097 9.208425
C -3.271548 -6.415837 10.113263
C -3.153438 -7.803768 10.250205
C -3.928286 -8.645541 9.461762
C -4.817154 -8.098602 8.541582
C -4.940550 -6.707985 8.410785
C -5.842470 -6.132936 7.508416
H -11.203015 -5.099126 3.682216
H -10.238487 -3.648811 3.342232
H -11.583740 -3.594024 4.535271
H -5.111177 -2.905209 8.186730
H -2.663509 -5.762280 10.736644
H -2.454383 -8.215557 10.969506
H -3.847156 -9.722878 9.565169
H -5.432544 -8.761260 7.934239
H -6.455354 -6.780604 6.890258
C -8.507902 0.218157 2.398637
O -7.299560 -0.310957 2.939285
C -7.140489 -1.643641 2.724506
O -7.931181 -2.370739 2.151494
C -5.859701 -2.101674 3.419766
C -4.680417 -2.214739 2.725394
C -4.772634 -1.947889 1.249659
C -4.631195 -2.957993 0.297041
N -4.881733 -2.819279 -1.030685
C -5.397353 -1.652480 -1.445585
C -5.789876 -1.502832 -2.769892
C -6.417839 -0.333195 -3.220143
C -6.644746 0.715759 -2.337316
C -6.228224 0.598314 -1.016554
C -5.601614 -0.573640 -0.568143
C -5.197696 -0.714673 0.762732
H -9.363439 -0.123558 2.984793
H -8.440990 1.307881 2.461777
H -8.616732 -0.055063 1.340677
H -4.346670 -3.971125 0.566639
H -5.624174 -2.322659 -3.464406
H -6.734150 -0.256908 -4.258341
H -7.144141 1.618178 -2.673680
H -6.399774 1.422224 -0.326921
H -5.321222 0.124760 1.436816
C -0.842427 -1.365265 8.035115
O -0.938573 -1.172297 6.622269
C -2.217444 -1.118209 6.168766
O -3.232225 -1.240185 6.839732
C -2.236101 -1.012440 4.645821
C -1.998154 0.241737 4.137922
C -1.475660 1.243410 5.154532
C -0.100464 1.440152 5.298007
N 0.466067 2.273627 6.201973
C -0.349071 2.986143 6.990992
C 0.199288 3.843636 7.936947
C -0.601400 4.604112 8.790386
C -1.987959 4.517104 8.698371
C -2.560516 3.668825 7.753737
C -1.755245 2.892011 6.909441
C -2.309095 2.005797 5.972885
H -1.401613 -2.251582 8.348801
H -1.198497 -0.473657 8.563725
H 0.207540 -1.533089 8.283629
H 0.617905 0.894588 4.694140
H 1.280867 3.913733 8.014681
H -0.141833 5.258341 9.527884
H -2.617249 5.106203 9.358531
H -3.642057 3.606635 7.684925
H -3.383802 1.905086 5.893740
C -4.113853 3.556872 -0.806201
O -2.930078 3.081756 -0.153157
C -2.591184 1.782064 -0.367842
O -3.131106 1.010869 -1.129632
C -1.347796 1.519116 0.419337
C -0.182964 2.039683 -0.100332
C 1.001312 2.103281 0.780357
C 0.960410 2.927986 1.899515
N 1.882537 2.920285 2.883909
C 2.906832 2.062752 2.792244
C 3.816061 1.978852 3.838912
C 4.892587 1.090706 3.800375
C 5.070382 0.278127 2.685442
C 4.172072 0.358258 1.626419
C 3.084183 1.240734 1.663143
C 2.125806 1.296134 0.633841
H -4.353235 3.006152 -1.715279
H -3.941943 4.607085 -1.078643
H -4.948899 3.511051 -0.104749
H 0.132683 3.614313 2.074773
H 3.667523 2.604173 4.717708
H 5.582344 1.035591 4.638314
H 5.899335 -0.424484 2.648970
H 4.313640 -0.280548 0.762845
H 2.226526 0.640041 -0.227754
C -1.780239 7.573500 -0.812131
O -0.842136 6.713882 -1.464225
C -0.481699 5.630613 -0.731929
O -0.877290 5.350659 0.391030
C 0.473094 4.769738 -1.507198
C 1.766971 5.174340 -1.752851
C 2.106667 6.615257 -1.507990
C 2.065807 7.248413 -0.271284
N 2.429547 8.535643 -0.051518
C 2.926052 9.239381 -1.083764
C 3.393517 10.529483 -0.883840
C 3.929946 11.290484 -1.929561
C 4.004674 10.754256 -3.211404
C 3.533037 9.466582 -3.444083
C 3.001683 8.706466 -2.385505
C 2.552527 7.392462 -2.584947
H -1.394973 7.888650 0.162656
H -1.914240 8.452029 -1.444775
H -2.742062 7.062843 -0.710381
H 1.747905 6.726771 0.625945
H 3.355928 10.951860 0.114517
H 4.308743 12.290815 -1.737655
H 4.430811 11.332578 -4.029336
H 3.607631 9.045646 -4.445086
H 2.599486 6.973444 -3.591619
C 7.507243 1.784599 -0.418678
O 6.949023 2.425225 -1.571161
C 5.611610 2.300418 -1.739246
O 4.856332 1.592564 -1.097288
C 5.146353 3.324607 -2.731945
C 5.707057 3.337030 -3.980766
C 5.571929 4.598156 -4.775557
C 6.429995 5.669475 -4.537331
N 6.396462 6.856438 -5.190940
C 5.504286 7.010550 -6.175029
C 5.445649 8.208918 -6.875045
C 4.526774 8.404697 -7.908438
C 3.647877 7.386515 -8.251897
C 3.700657 6.172698 -7.565430
C 4.623389 5.971702 -6.530077
C 4.693222 4.750360 -5.835029
H 6.856452 1.030307 0.024037
H 8.443551 1.309299 -0.715713
H 7.728614 2.554787 0.327933
H 7.216310 5.603508 -3.781116
H 6.134198 9.007594 -6.607023
H 4.504211 9.356534 -8.439663
H 2.928990 7.535081 -9.049582
H 3.003734 5.387877 -7.831180
H 4.059088 3.919799 -6.131330
C 6.500481 3.532337 -8.837218
O 6.064971 2.464094 -7.987558
C 7.090800 1.776679 -7.411269
O 8.280210 2.007091 -7.543692
C 6.514769 0.675221 -6.568167
C 6.393208 -0.509682 -7.244234
C 7.139079 -0.674393 -8.539219
C 8.407891 -1.253438 -8.557857
N 9.137091 -1.480780 -9.683310
C 8.619809 -1.096761 -10.857985
C 9.341882 -1.331424 -12.021837
C 8.851806 -0.941076 -13.270066
C 7.619197 -0.310726 -13.367587
C 6.872869 -0.080396 -12.216374
C 7.360448 -0.468745 -10.954498
C 6.632002 -0.250538 -9.768461
H 5.634287 3.872386 -9.408170
H 7.267995 3.192688 -9.541725
H 6.881138 4.357648 -8.229764
H 8.907138 -1.566387 -7.649644
H 10.306553 -1.822130 -11.952482
H 9.446253 -1.125932 -14.163197
H 7.234763 0.000302 -14.335078
H 5.899664 0.396436 -12.301682
H 5.672597 0.253689 -9.830738
C 2.281324 -3.318517 -11.302415
O 2.484697 -2.464547 -10.181091
C 3.779280 -2.386576 -9.759832
O 4.741104 -2.937490 -10.291090
C 3.882672 -1.571338 -8.508564
C 3.068068 -0.555409 -8.384244
C 2.090162 0.483830 -8.457959
C 0.789594 0.279168 -8.018953
N -0.181519 1.220489 -8.053208
C 0.114974 2.408551 -8.611417
C -0.833990 3.420356 -8.614714
C -0.560753 4.687175 -9.138886
C 0.681666 4.939749 -9.707768
C 1.655853 3.943394 -9.722235
C 1.395972 2.691867 -9.137051
C 2.386074 1.709256 -9.037833
H 2.618743 -2.825364 -12.216655
H 1.211111 -3.514935 -11.378507
H 2.790820 -4.279754 -11.170747
H 0.476652 -0.677915 -7.604887
H -1.814684 3.224191 -8.176780
H -1.321679 5.463432 -9.099646
H 0.897512 5.924232 -10.115921
H 2.629558 4.164689 -10.155076
H 3.389059 1.898961 -9.412033
