304
Molecule ID: homopoly_2774977
O -1.254422 -1.633016 -3.419262
C -0.202151 -1.966307 -3.937574
O 0.769076 -1.157134 -4.413159
C 0.531448 0.250504 -4.219620
C 1.753882 1.032264 -4.686736
F 2.840781 0.588183 -3.997080
F 1.986587 0.744956 -5.994854
C 1.581882 2.520055 -4.500452
F 1.296977 2.784732 -3.191434
C 2.849111 3.223608 -4.910777
F 3.161464 2.982697 -6.203542
F 3.912297 2.845714 -4.161793
F 2.718288 4.565988 -4.786483
C 0.143733 -3.352894 -4.075007
C 0.494781 -4.594846 -4.228383
H 0.368383 0.430445 -3.155668
H -0.349942 0.540762 -4.800070
H 0.746121 2.890739 -5.106122
H 0.797030 -4.933345 -5.217099
O 0.508023 -3.581743 0.472341
C -0.323869 -4.439741 0.204883
O -0.836907 -5.346951 1.068053
C -0.266893 -5.299223 2.388563
C -1.057964 -6.202306 3.335698
F -1.178481 -7.435794 2.783600
F -2.311929 -5.696285 3.464015
C -0.395516 -6.310739 4.687498
F -0.121220 -5.059245 5.168168
C -1.296888 -7.054331 5.645896
F -0.676725 -7.215155 6.841061
F -1.596214 -8.292937 5.195742
F -2.455902 -6.402137 5.879064
C -0.710894 -4.801061 -1.189558
C -1.932617 -4.545534 -1.698168
H 0.769617 -5.654605 2.313651
H -0.282522 -4.267642 2.759612
H 0.557127 -6.843982 4.602530
H -2.108327 -4.855410 -2.730724
O -6.238449 -5.482293 -1.630104
C -6.288204 -4.435152 -1.004043
O -6.997427 -4.217929 0.132792
C -7.670934 -5.387421 0.637842
C -9.021939 -5.624977 -0.040843
F -9.845339 -4.586437 0.271052
F -8.893228 -5.614118 -1.387255
C -9.617073 -6.935614 0.418012
F -9.739488 -6.929005 1.779929
C -10.956229 -7.158774 -0.236774
F -11.847062 -6.180076 0.032534
F -10.846915 -7.261374 -1.579967
F -11.499194 -8.326208 0.193086
C -5.500724 -3.220765 -1.399953
C -6.193468 -2.067086 -1.424194
H -7.012270 -6.260077 0.545540
H -7.822920 -5.206959 1.707601
H -8.953700 -7.768521 0.155901
H -7.223858 -2.059012 -1.057076
O -7.292383 1.473475 -3.692328
C -6.449904 2.115847 -3.078444
O -5.813110 3.220814 -3.534340
C -6.261627 3.735575 -4.807091
C -6.317030 5.259907 -4.720037
F -7.153507 5.629016 -3.711274
F -5.081545 5.711074 -4.346379
C -6.702534 5.972219 -5.997264
F -5.888842 5.551642 -7.015171
C -8.147538 5.733588 -6.357115
F -8.986730 6.139659 -5.378366
F -8.483085 6.429557 -7.470300
F -8.406016 4.435473 -6.606668
C -6.004969 1.755196 -1.684340
C -5.771933 2.807292 -0.870578
H -5.534724 3.417474 -5.563374
H -7.248734 3.337920 -5.058466
H -6.532916 7.047099 -5.879191
H -5.785653 3.817272 -1.283482
O -6.259083 4.759293 3.157986
C -5.260815 4.102564 3.419538
O -5.000518 3.456845 4.581966
C -6.011346 3.552583 5.611942
C -5.336905 3.905548 6.935582
F -4.494650 2.905212 7.306694
F -4.534380 4.997324 6.737549
C -6.278689 4.230536 8.075490
F -7.094774 5.265230 7.708272
C -7.103251 3.034782 8.473520
F -6.328706 1.997139 8.854637
F -7.898214 2.609467 7.471782
F -7.903374 3.333352 9.524189
C -4.151148 3.870285 2.440265
C -2.923809 4.150544 2.931129
H -6.767211 4.305623 5.368201
H -6.486789 2.568818 5.666446
H -5.699425 4.574815 8.937660
H -2.858760 4.457067 3.979718
O 1.173966 5.573670 2.879019
C 1.582525 4.469082 2.547956
O 2.797201 4.217519 2.003925
C 3.658739 5.362251 1.887723
C 3.602823 6.026759 0.517275
F 4.451323 7.092873 0.560285
F 2.366359 6.536399 0.302835
C 4.021027 5.100956 -0.602547
F 3.205888 4.008680 -0.676717
C 4.025807 5.849620 -1.911441
F 2.813248 6.308617 -2.273532
F 4.880078 6.898501 -1.881321
F 4.470947 5.036918 -2.904152
C 0.780660 3.221722 2.773007
C 1.327717 1.996705 2.945709
H 3.456643 6.099721 2.677068
H 4.680381 5.008447 2.080022
H 5.035085 4.727278 -0.416934
H 0.666026 1.191748 3.257150
O 0.963993 -0.272101 -0.674683
C 1.401711 -0.197518 0.469213
O 0.633488 -0.405253 1.563936
C -0.791319 -0.539893 1.315829
C -1.418686 0.605873 0.502384
F -0.543714 1.641632 0.459013
F -2.499304 1.097436 1.173574
C -1.851346 0.182509 -0.885287
F -3.016753 -0.524832 -0.795451
C -1.989213 1.395262 -1.762369
F -2.282300 1.065548 -3.038038
F -0.834144 2.096313 -1.849850
F -2.931229 2.254530 -1.328378
C 2.836812 0.127197 0.771111
C 3.617374 -0.257462 -0.267076
H -0.977641 -1.515525 0.861918
H -1.260430 -0.564589 2.306343
H -1.132406 -0.491211 -1.337906
H 3.104460 -0.772701 -1.087523
O 7.614860 -1.731972 -1.220838
C 7.621991 -1.144009 -2.290872
O 8.379406 -1.501863 -3.356012
C 9.133989 -2.719585 -3.195637
C 8.330755 -3.919468 -3.699538
F 9.103441 -5.030952 -3.634908
F 7.301244 -4.134110 -2.821106
C 7.726783 -3.764868 -5.083679
F 6.945066 -4.859057 -5.346324
C 8.799521 -3.641650 -6.134602
F 9.543470 -2.528572 -5.946781
F 9.643668 -4.691536 -6.153185
F 8.254679 -3.534296 -7.368904
C 6.657138 -0.039632 -2.598510
C 6.798815 0.962638 -3.493056
H 9.432675 -2.872787 -2.151017
H 10.068588 -2.605340 -3.752773
H 7.053824 -2.899534 -5.115246
H 5.975171 1.681243 -3.557162
O 1.953183 -7.628670 -3.036345
C 1.967863 -6.450235 -3.353354
O 3.045468 -5.784625 -3.842852
C 4.271149 -6.549206 -3.838023
C 4.379003 -7.556326 -4.992579
F 5.491157 -7.238525 -5.713590
F 3.327915 -7.401777 -5.844584
C 4.464066 -8.989723 -4.516082
F 5.423800 -9.104431 -3.547929
C 4.786572 -9.905241 -5.670735
F 6.003698 -9.665075 -6.205650
F 3.871154 -9.815512 -6.663052
F 4.784569 -11.200449 -5.260214
C 0.843416 -5.481597 -3.133910
C 0.325150 -5.565518 -1.891265
H 5.078559 -5.812849 -3.922006
H 4.409119 -7.017334 -2.854807
H 3.516646 -9.310297 -4.073679
H 0.783465 -6.299759 -1.219232
O -4.004557 -5.187246 0.778323
C -3.453913 -4.183320 0.353635
O -3.099950 -3.090842 1.074841
C -3.480891 -3.119609 2.466955
C -4.440362 -1.976850 2.798975
F -5.478980 -1.992568 1.928065
F -3.781123 -0.805625 2.616160
C -4.938857 -2.108519 4.219764
F -3.870727 -2.242403 5.064824
C -5.773487 -0.919215 4.618756
F -5.076663 0.234266 4.613001
F -6.861573 -0.783570 3.832401
F -6.240637 -1.088657 5.883909
C -3.130988 -3.970463 -1.084329
C -4.127345 -3.453692 -1.844607
H -2.555925 -3.003474 3.040930
H -3.939008 -4.071920 2.749348
H -5.545777 -3.015266 4.318367
H -3.969613 -3.331880 -2.913531
O -4.493368 0.136076 -3.771657
C -5.300565 -0.687473 -3.376099
O -5.880803 -1.645428 -4.146230
C -5.501251 -1.571045 -5.528977
C -6.134858 -2.702969 -6.326468
F -5.597799 -2.687249 -7.574642
F -7.460330 -2.446038 -6.477720
C -5.940190 -4.052241 -5.671058
F -4.609726 -4.252392 -5.413509
C -6.466379 -5.139274 -6.577314
F -6.314253 -6.355754 -5.993095
F -7.788779 -4.993264 -6.824707
F -5.826059 -5.190020 -7.764476
C -5.815735 -0.769337 -1.979849
C -6.063515 0.351564 -1.262780
H -5.832012 -0.611671 -5.940358
H -4.409112 -1.636026 -5.617435
H -6.469843 -4.104401 -4.714600
H -6.398551 0.205668 -0.238085
O -6.307859 1.602568 2.503582
C -6.559619 2.208840 1.473850
O -7.796773 2.409316 0.955597
C -8.901795 1.831812 1.686044
C -9.175203 0.402407 1.218081
F -8.047679 -0.350825 1.392685
F -9.388460 0.398413 -0.126650
C -10.315036 -0.308777 1.915479
F -10.102812 -0.297406 3.267965
C -11.647024 0.325558 1.599910
F -11.721800 1.597456 2.043917
F -12.654853 -0.362904 2.187502
F -11.899346 0.338778 0.273746
C -5.541937 2.831471 0.575458
C -4.480099 3.514505 1.063253
H -8.716729 1.880917 2.765649
H -9.751227 2.480950 1.463020
H -10.332649 -1.357929 1.604960
H -3.785863 3.915328 0.329651
O -0.292214 4.463105 0.339450
C -1.222621 4.773118 1.065218
O -2.052278 5.818272 0.832679
C -1.569759 6.809835 -0.101209
C -1.395552 6.413195 -1.577123
F -1.670263 7.522223 -2.322599
F -0.087162 6.134189 -1.814443
C -2.254526 5.264945 -2.045033
F -3.564302 5.503833 -1.740589
C -2.085915 5.054166 -3.532383
F -2.850815 4.010978 -3.951324
F -0.811687 4.726642 -3.863380
F -2.434869 6.123744 -4.272223
C -1.594733 4.058397 2.328291
C -0.658249 3.369136 3.023047
H -2.306257 7.620484 -0.053294
H -0.633027 7.226322 0.287039
H -1.966082 4.344974 -1.541250
H -0.980643 2.858477 3.932561
O 4.855217 2.063443 3.943465
C 3.637163 2.056160 4.008177
O 2.908428 2.472590 5.076049
C 3.663963 2.912748 6.224141
C 3.966669 1.741788 7.161622
F 4.679822 0.800984 6.500676
F 2.789941 1.154886 7.514129
C 4.689850 2.208451 8.403375
F 5.792609 2.933445 8.055720
C 5.083821 1.020585 9.247320
F 4.005088 0.299495 9.628896
F 5.940346 0.189755 8.622843
F 5.687614 1.438833 10.388645
C 2.718060 1.578663 2.910922
C 3.309484 0.795374 1.981333
H 4.576455 3.429477 5.904563
H 3.030865 3.644691 6.737194
H 4.043527 2.866451 8.992914
H 4.369993 0.620388 2.146576
O 6.854866 1.105885 0.367140
C 6.111301 0.137385 0.377011
O 6.137371 -0.903159 1.251459
C 7.151432 -0.841035 2.276066
C 8.302775 -1.816467 2.023067
F 9.050811 -1.883810 3.161564
F 9.130404 -1.264745 1.088739
C 7.924266 -3.215779 1.576714
F 9.069059 -3.947780 1.384859
C 7.063787 -3.902643 2.606492
F 5.883077 -3.262553 2.787044
F 6.750290 -5.162393 2.209032
F 7.651003 -3.995821 3.815799
C 5.028768 -0.081516 -0.615593
C 5.353899 -0.122221 -1.928573
H 6.661543 -1.079564 3.226756
H 7.546714 0.175735 2.394442
H 7.400623 -3.210236 0.619830
H 4.552920 -0.251330 -2.654063
O 8.028331 3.186597 -5.942149
C 8.007885 2.763061 -4.799134
O 8.141102 3.514463 -3.677310
C 8.280053 4.927914 -3.908423
C 9.625766 5.398702 -4.481673
F 9.558017 5.431815 -5.832471
F 9.779782 6.699871 -4.090447
C 10.828952 4.608774 -4.019593
F 10.703272 3.281226 -4.318011
C 12.076067 5.157387 -4.673081
F 12.067859 5.044007 -6.015721
F 12.278620 6.458607 -4.367177
F 13.171815 4.487855 -4.221337
C 7.857937 1.321317 -4.427091
C 8.298976 0.456970 -5.298818
H 8.141914 5.400159 -2.923648
H 7.445775 5.282664 -4.530182
H 10.932766 4.686660 -2.932135
H 8.703263 -0.175831 -6.051653
