880
Molecule ID: homopoly_83410
C 3.645315 2.157097 13.415600
C 4.489540 1.275649 12.507629
C 4.594385 1.802220 11.074728
C 3.282071 1.688521 10.288802
C 3.396531 2.232077 8.858955
C 4.252920 1.352929 7.945791
C 4.446534 1.998324 6.573086
C 5.301397 1.108707 5.671906
C 5.701785 1.819808 4.376765
C 6.612602 0.919709 3.545908
C 7.208671 1.630865 2.331195
C 8.220942 0.722446 1.632482
C 8.869656 1.375148 0.413835
C 9.871037 0.447322 -0.288177
C 11.127834 0.126599 0.540995
C 11.304180 -1.369603 0.808219
O 10.182415 -1.876394 1.541657
C 10.312256 -1.943566 2.889081
O 11.318829 -1.731193 3.545135
C 9.049749 -2.240845 3.512259
C 7.839508 -2.430111 3.948131
H 3.676279 1.773616 14.440951
H 2.598547 2.177087 13.098005
H 4.024521 3.184545 13.427489
H 5.500920 1.216642 12.927545
H 4.086978 0.256379 12.505052
H 4.930358 2.846223 11.087813
H 5.375472 1.224425 10.568363
H 2.499490 2.260248 10.802009
H 2.949955 0.643626 10.264138
H 2.387734 2.302433 8.432781
H 3.799395 3.252040 8.889666
H 3.777484 0.370495 7.833315
H 5.237737 1.183539 8.392305
H 3.474097 2.178217 6.103189
H 4.933210 2.973812 6.698174
H 6.210162 0.813081 6.210802
H 4.752873 0.187895 5.436898
H 4.808396 2.084855 3.800126
H 6.225917 2.752230 4.618482
H 7.426168 0.559051 4.182203
H 6.049628 0.038532 3.216515
H 7.701619 2.558609 2.642295
H 6.410922 1.901852 1.636464
H 8.999481 0.465981 2.355864
H 7.728779 -0.209091 1.329130
H 8.086486 1.646813 -0.303736
H 9.369953 2.307072 0.702511
H 9.360870 -0.471166 -0.601372
H 10.191454 0.947318 -1.210660
H 12.007868 0.482411 -0.008069
H 11.112662 0.670530 1.491770
H 11.345573 -1.919632 -0.138044
H 12.249657 -1.560500 1.328283
H 7.036923 -2.431929 3.215022
C 13.658235 4.498249 -4.041296
C 12.595384 3.958528 -4.985578
C 12.939687 2.585439 -5.566126
C 12.965378 1.467094 -4.520589
C 13.243970 0.111717 -5.176350
C 13.276817 -1.020377 -4.146122
C 13.571185 -2.365026 -4.819069
C 13.692141 -3.531581 -3.833725
C 12.382790 -3.844245 -3.107676
C 12.508270 -5.091004 -2.226726
C 11.216574 -5.328126 -1.443711
C 11.339731 -6.497890 -0.464027
C 10.090645 -6.585156 0.416058
C 10.232754 -7.636972 1.522090
C 9.113057 -7.532797 2.563115
C 9.292804 -6.316932 3.474435
O 8.119560 -6.041277 4.249861
C 7.151043 -5.361558 3.587787
O 7.085922 -5.156569 2.385290
C 6.176998 -4.797214 4.566387
C 4.915576 -5.213365 4.361285
H 14.639280 4.520222 -4.525834
H 13.734642 3.892134 -3.134059
H 13.407052 5.519475 -3.736985
H 12.476916 4.665424 -5.815257
H 11.631446 3.915031 -4.465880
H 12.193777 2.340631 -6.332233
H 13.909641 2.636106 -6.075669
H 12.003891 1.431676 -3.994384
H 13.739652 1.668361 -3.771959
H 12.471519 -0.098695 -5.926268
H 14.204393 0.153769 -5.703870
H 14.045343 -0.811214 -3.392221
H 12.312338 -1.056725 -3.626486
H 14.515147 -2.287493 -5.373896
H 12.789496 -2.588372 -5.555230
H 14.477768 -3.311927 -3.101095
H 14.017726 -4.419088 -4.390179
H 11.579323 -3.993352 -3.839571
H 12.097343 -2.992640 -2.479993
H 12.731848 -5.966336 -2.848113
H 13.345699 -4.962501 -1.529369
H 10.389719 -5.515646 -2.139770
H 10.965901 -4.415671 -0.888511
H 12.223082 -6.351249 0.169213
H 11.482389 -7.436530 -1.012323
H 9.905597 -5.596746 0.849207
H 9.217536 -6.822974 -0.204083
H 10.207070 -8.633618 1.065534
H 11.204444 -7.538292 2.020452
H 8.137897 -7.516086 2.066455
H 9.108212 -8.434638 3.188550
H 9.576639 -5.411919 2.926832
H 10.106479 -6.509837 4.183476
H 4.736610 -5.902243 3.531613
C -3.714325 -5.844210 -11.406632
C -2.558966 -5.021032 -10.858776
C -2.228688 -5.332013 -9.398194
C -1.694333 -6.751366 -9.183214
C -1.289070 -6.964110 -7.724506
C -0.739693 -8.372370 -7.475942
C -0.309816 -8.523773 -6.016191
C 0.311605 -9.888423 -5.715084
C 1.063404 -9.907518 -4.378534
C 0.166384 -9.769120 -3.143796
C 1.009334 -9.495323 -1.895718
C 0.153463 -9.286928 -0.641188
C 1.038818 -8.865367 0.533095
C 0.252738 -8.639276 1.825143
C 1.157881 -8.017032 2.886763
C 0.437117 -7.735201 4.202932
O 1.227490 -6.755457 4.891170
C 0.530662 -5.647227 5.257076
O -0.562755 -5.657624 5.799860
C 1.211275 -4.438108 4.672870
C 0.329930 -3.551160 4.161947
H -4.606059 -5.735026 -10.781549
H -3.460049 -6.906323 -11.462524
H -3.967098 -5.510776 -12.418269
H -2.820996 -3.959275 -10.936985
H -1.672215 -5.174653 -11.484153
H -1.476293 -4.609958 -9.056923
H -3.119425 -5.173666 -8.778112
H -2.458298 -7.487981 -9.454786
H -0.828726 -6.922346 -9.834202
H -2.157032 -6.790900 -7.078261
H -0.530096 -6.221973 -7.447215
H 0.117652 -8.551421 -8.135668
H -1.503536 -9.119981 -7.719536
H -1.186637 -8.375786 -5.377632
H 0.411602 -7.733172 -5.775919
H -0.463098 -10.664139 -5.725291
H 1.028066 -10.140596 -6.506810
H 1.619988 -10.849524 -4.301927
H 1.811618 -9.104591 -4.387067
H -0.546148 -8.951968 -3.273160
H -0.419806 -10.685200 -3.007809
H 1.706535 -10.325776 -1.728962
H 1.616180 -8.596466 -2.066311
H -0.597971 -8.509471 -0.829015
H -0.382895 -10.211323 -0.397554
H 1.567940 -7.942435 0.263319
H 1.799307 -9.634331 0.709126
H -0.161111 -9.587537 2.185862
H -0.586465 -7.961599 1.628048
H 1.577061 -7.080240 2.494407
H 2.020763 -8.667568 3.081416
H 0.376277 -8.637162 4.819239
H -0.575639 -7.366320 4.009642
H -0.738815 -3.681023 4.348510
C -2.312808 -15.468194 5.022927
C -1.503164 -14.243102 4.628769
C -0.064270 -14.613914 4.271817
C 0.745646 -13.380548 3.873873
C 2.183217 -13.748899 3.498816
C 2.975971 -12.503798 3.094928
C 4.425191 -12.845713 2.726315
C 5.286249 -11.597233 2.506825
C 4.902366 -10.808723 1.252542
C 5.567531 -9.432779 1.239794
C 5.088175 -8.586518 0.057127
C 5.461623 -7.118978 0.260523
C 4.921446 -6.226821 -0.857622
C 5.120426 -4.739262 -0.549005
C 4.085663 -4.208892 0.446327
C 4.344177 -2.756698 0.831916
O 3.210922 -2.286526 1.580274
C 3.089690 -0.936178 1.638644
O 3.895910 -0.142476 1.180251
C 1.814541 -0.539789 2.333828
C 1.327316 0.655472 1.947585
H -1.873466 -15.963332 5.895354
H -3.338020 -15.178160 5.274070
H -2.353461 -16.189535 4.200022
H -1.983962 -13.752960 3.773830
H -1.507175 -13.524902 5.457027
H -0.064259 -15.334995 3.446690
H 0.413789 -15.104075 5.128331
H 0.755739 -12.664539 4.704517
H 0.262202 -12.881545 3.025618
H 2.178010 -14.466769 2.669275
H 2.671199 -14.238016 4.350043
H 2.967470 -11.783743 3.922760
H 2.473746 -12.027140 2.244838
H 4.444304 -13.477447 1.829725
H 4.872828 -13.429829 3.540778
H 6.336832 -11.901183 2.423968
H 5.214160 -10.955548 3.394150
H 3.818525 -10.669552 1.213531
H 5.185754 -11.373339 0.356242
H 5.328180 -8.915448 2.177594
H 6.657891 -9.539396 1.201017
H 3.999425 -8.664964 -0.039977
H 5.523088 -8.965890 -0.874504
H 6.552564 -7.019627 0.307183
H 5.063936 -6.789278 1.225407
H 5.451398 -6.469932 -1.787242
H 3.858831 -6.429780 -1.033761
H 5.030570 -4.177251 -1.485012
H 6.135537 -4.563883 -0.174536
H 4.072139 -4.815989 1.356596
H 3.079277 -4.302958 0.021922
H 4.488305 -2.149985 -0.066229
H 5.236483 -2.682418 1.462548
H 1.870169 1.200865 1.168671
C 3.298612 -4.611883 -11.557048
C 2.389370 -3.623861 -12.271557
C 2.510387 -2.222951 -11.672556
C 1.539821 -1.242865 -12.332940
C 1.724910 0.203122 -11.862108
C 1.505434 0.389002 -10.359608
C 1.574543 1.864850 -9.968892
C 1.425824 2.055711 -8.457999
C 1.403956 3.541295 -8.097648
C 1.201910 3.795219 -6.603009
C 2.453995 3.535232 -5.762608
C 2.230243 3.781785 -4.265013
C 1.784242 5.209653 -3.939858
C 1.798894 5.547682 -2.443882
C 0.982966 4.573677 -1.606888
C 0.668273 5.083948 -0.205476
O 0.089848 3.970058 0.491272
C -0.865464 4.250125 1.411055
O -1.178362 5.358289 1.814209
C -1.607369 2.968516 1.697236
C -2.925126 3.132332 1.461203
H 4.344041 -4.291998 -11.607244
H 3.018855 -4.708771 -10.503227
H 3.222699 -5.600509 -12.020185
H 1.352788 -3.974019 -12.198767
H 2.650490 -3.596252 -13.336245
H 2.298884 -2.278526 -10.600620
H 3.540043 -1.861565 -11.785469
H 0.508320 -1.560687 -12.138060
H 1.679747 -1.269934 -13.420889
H 2.732271 0.546212 -12.128586
H 1.018640 0.836659 -12.413469
H 2.269861 -0.162872 -9.804759
H 0.531141 -0.023212 -10.071529
H 0.780557 2.413230 -10.489661
H 2.531201 2.290556 -10.296804
H 0.497648 1.580639 -8.115756
H 2.255024 1.557415 -7.945120
H 0.574373 4.016084 -8.635812
H 2.324670 4.029402 -8.440634
H 0.906917 4.844851 -6.492393
H 0.372010 3.184490 -6.229781
H 2.782011 2.497589 -5.891824
H 3.273687 4.173156 -6.117055
H 3.167664 3.573224 -3.740406
H 1.490448 3.063037 -3.894457
H 2.426399 5.918771 -4.470342
H 0.770499 5.377610 -4.317657
H 1.403402 6.559828 -2.319854
H 2.830337 5.567749 -2.077458
H 1.507128 3.612412 -1.535230
H 0.033955 4.361547 -2.106108
H -0.026780 5.929193 -0.265186
H 1.571424 5.398934 0.321193
H -3.291781 4.150694 1.283752
C -8.863891 -2.918700 -10.725101
C -9.682308 -4.145440 -10.355374
C -9.591787 -4.445268 -8.859152
C -10.377313 -5.705358 -8.497836
C -10.265867 -6.085615 -7.019632
C -11.053137 -5.157632 -6.090884
C -11.025268 -5.679058 -4.651796
C -11.963886 -4.884662 -3.740376
C -12.025333 -5.510700 -2.345399
C -13.093924 -4.887927 -1.443437
C -12.901058 -3.407416 -1.105116
C -11.574792 -3.119381 -0.401137
C -11.543011 -1.701907 0.170825
C -10.207755 -1.417985 0.860840
C -10.235038 -0.074263 1.592344
C -8.885895 0.273097 2.213384
O -7.927848 0.460873 1.161551
C -7.111723 1.536152 1.277402
O -7.107044 2.334949 2.201280
C -6.179642 1.639306 0.100539
C -6.758470 1.404107 -1.101843
H -9.209529 -2.037081 -10.175544
H -7.803986 -3.074754 -10.499175
H -8.955783 -2.710782 -11.795736
H -10.728791 -3.982885 -10.639389
H -9.319730 -5.005107 -10.931531
H -9.971081 -3.587035 -8.293470
H -8.541023 -4.583256 -8.581815
H -11.431898 -5.581809 -8.771473
H -9.993524 -6.542020 -9.094241
H -9.212004 -6.112679 -6.717509
H -10.651580 -7.107003 -6.907375
H -12.091616 -5.094183 -6.438343
H -10.638474 -4.143685 -6.119222
H -11.322690 -6.735072 -4.642363
H -10.000812 -5.629439 -4.262260
H -11.617681 -3.846998 -3.676271
H -12.970277 -4.867593 -4.175699
H -12.257893 -6.578335 -2.443490
H -11.041335 -5.455382 -1.866585
H -13.128555 -5.459033 -0.506782
H -14.077011 -5.013817 -1.914093
H -12.982297 -2.797717 -2.012626
H -13.730989 -3.103682 -0.454916
H -11.425338 -3.840593 0.411643
H -10.744134 -3.245378 -1.105304
H -12.364755 -1.577630 0.887575
H -11.701811 -0.973453 -0.634349
H -9.983201 -2.213682 1.581738
H -9.409317 -1.426477 0.109052
H -10.994891 -0.106938 2.382294
H -10.520026 0.715006 0.886232
H -8.527809 -0.542606 2.849043
H -9.004663 1.166139 2.836226
H -7.807604 1.094851 -1.134260
C -15.723934 0.128244 4.719667
C -14.302517 0.664152 4.794880
C -14.020216 1.304256 6.154261
C -12.629970 1.941057 6.248333
C -11.449720 0.981373 6.060727
C -11.397393 -0.119476 7.121747
C -10.126412 -0.972267 7.062389
C -9.975159 -1.743939 5.750700
C -8.804428 -2.727368 5.813042
C -8.643148 -3.481375 4.490845
C -7.534668 -4.532140 4.583087
C -7.411804 -5.386663 3.317386
C -7.023266 -4.633307 2.042048
C -5.627110 -4.008202 2.117597
C -5.198102 -3.340947 0.809059
C -6.013643 -2.095240 0.491724
O -5.468884 -1.449572 -0.672310
C -6.232665 -1.535275 -1.786403
O -7.293769 -2.131726 -1.905473
C -5.544265 -0.873595 -2.926443
C -4.956226 -1.795230 -3.718632
H -15.914189 -0.299901 3.730337
H -15.885360 -0.655752 5.466367
H -16.455914 0.925295 4.891636
H -13.608560 -0.161893 4.608688
H -14.153640 1.403106 3.998922
H -14.150321 0.563115 6.950885
H -14.764683 2.088222 6.341689
H -12.537337 2.432535 7.225432
H -12.553343 2.736531 5.496544
H -11.486627 0.544595 5.058093
H -10.525607 1.567755 6.103616
H -11.457427 0.336376 8.116947
H -12.267018 -0.778250 7.021508
H -9.246895 -0.338093 7.220017
H -10.153902 -1.682211 7.898536
H -10.900526 -2.291266 5.536627
H -9.814539 -1.043047 4.924936
H -7.877591 -2.186955 6.043080
H -8.974806 -3.442450 6.627558
H -8.411853 -2.763265 3.696956
H -9.590141 -3.968916 4.226962
H -6.578274 -4.048760 4.813619
H -7.750694 -5.204823 5.423479
H -8.364890 -5.899649 3.141212
H -6.671194 -6.171134 3.501703
H -7.046911 -5.343687 1.205954
H -7.777245 -3.872882 1.820615
H -5.581869 -3.268430 2.924051
H -4.897271 -4.788565 2.362806
H -4.139741 -3.061081 0.881682
H -5.261006 -4.050094 -0.025050
H -5.951049 -1.387017 1.317697
H -7.074046 -2.334679 0.370095
H -4.991420 -2.834309 -3.378248
C 4.507301 5.584494 1.283305
C 4.297587 4.136184 0.879172
C 5.020652 3.792952 -0.425323
C 4.689639 2.364301 -0.852147
C 5.386777 1.945774 -2.145026
C 5.218414 0.451636 -2.456389
C 3.757644 -0.002817 -2.537949
C 3.645418 -1.480101 -2.926200
C 2.199229 -1.966164 -2.817417
C 2.056821 -3.462391 -3.106904
C 0.611926 -3.834392 -3.450044
C 0.366971 -5.337610 -3.353317
C -1.047659 -5.756230 -3.772391
C -2.165648 -5.148337 -2.923528
C -3.463721 -5.971468 -2.952974
C -4.090403 -6.175506 -4.333753
O -4.427293 -4.899542 -4.894425
C -5.590160 -4.826400 -5.597406
O -6.359004 -5.750294 -5.814411
C -5.809008 -3.417230 -6.060863
C -7.067183 -3.050324 -6.386847
H 3.955117 5.807185 2.201906
H 4.159008 6.267836 0.501827
H 5.565400 5.782815 1.469914
H 3.226256 3.939157 0.774492
H 4.653119 3.487551 1.686474
H 4.726022 4.491389 -1.215350
H 6.102231 3.901056 -0.284555
H 3.603582 2.276192 -0.971059
H 4.986923 1.679095 -0.056339
H 5.007740 2.541461 -2.981817
H 6.458972 2.162814 -2.072237
H 5.722601 0.236352 -3.406355
H 5.736839 -0.132652 -1.684369
H 3.216553 0.610450 -3.268353
H 3.269405 0.143366 -1.567745
H 4.289390 -2.086599 -2.283219
H 4.005003 -1.613500 -3.953140
H 1.818154 -1.767182 -1.807787
H 1.580753 -1.380559 -3.501941
H 2.706237 -3.756830 -3.939182
H 2.392779 -4.023644 -2.228392
H 0.393271 -3.500546 -4.466017
H -0.081908 -3.305937 -2.794488
H 1.086689 -5.863066 -3.993973
H 0.555730 -5.678499 -2.326577
H -1.209388 -5.503105 -4.826431
H -1.100009 -6.843961 -3.691924
H -2.367143 -4.120957 -3.249839
H -1.836522 -5.088725 -1.878629
H -3.273458 -6.954518 -2.505410
H -4.191530 -5.462648 -2.308913
H -3.390510 -6.673087 -5.011421
H -4.971802 -6.816595 -4.224236
H -7.889348 -3.755248 -6.256604
C 7.805441 12.841156 -3.412858
C 6.869330 12.276838 -2.355608
C 7.621284 11.421326 -1.337265
C 6.666956 10.827905 -0.301219
C 7.403890 9.938731 0.703398
C 6.413363 9.194018 1.597331
C 7.068631 8.416528 2.740132
C 8.082579 7.361247 2.289748
C 8.451563 6.438681 3.455241
C 9.454736 5.360613 3.041231
C 9.772608 4.432763 4.217512
C 10.780542 3.350637 3.825505
C 11.181097 2.443790 4.994854
C 10.040811 1.548226 5.485504
C 10.504926 0.605971 6.599373
C 9.364589 -0.246248 7.160389
O 8.813272 -1.042402 6.105657
C 7.955254 -2.017611 6.496189
O 7.603932 -2.229259 7.647437
C 7.486270 -2.810888 5.306326
C 6.654397 -3.848538 5.563877
H 7.247313 13.462905 -4.119610
H 8.289783 12.036382 -3.975885
H 8.585141 13.460549 -2.957079
H 6.094818 11.677966 -2.848737
H 6.363594 13.103699 -1.844318
H 8.381473 12.029210 -0.831554
H 8.148437 10.613327 -1.857110
H 6.152586 11.635519 0.233803
H 5.892242 10.243994 -0.811046
H 8.027727 9.216711 0.165412
H 8.072857 10.555550 1.315567
H 5.817761 8.505183 0.985471
H 5.708206 9.910927 2.034980
H 7.557627 9.118741 3.426426
H 6.269884 7.926219 3.309064
H 7.668644 6.765987 1.468284
H 8.987438 7.850606 1.910385
H 8.870388 7.034655 4.274834
H 7.542435 5.957891 3.839430
H 9.044340 4.775199 2.209706
H 10.376374 5.834633 2.681746
H 10.175339 5.022492 5.049675
H 8.841571 3.972896 4.567747
H 10.376462 2.742352 3.008915
H 11.687133 3.833778 3.439574
H 12.015452 1.811449 4.667151
H 11.554959 3.057850 5.823101
H 9.666514 0.959849 4.640840
H 9.210310 2.160257 5.855039
H 11.279011 -0.058117 6.196211
H 10.953747 1.184428 7.415385
H 9.759760 -0.892182 7.953299
H 8.577999 0.395327 7.574218
H 6.359926 -4.068622 6.590309
C -8.404112 2.788508 7.957966
C -8.107478 2.174854 9.317119
C -6.753526 1.468129 9.318269
C -6.405358 0.909870 10.698911
C -5.043242 0.216875 10.677672
C -4.673751 -0.352359 12.048774
C -3.336672 -1.092749 11.981497
C -2.986950 -1.760587 13.313895
C -1.639657 -2.494271 13.293982
C -1.566104 -3.565301 12.206857
C -0.286703 -4.398194 12.282895
C -0.236869 -5.361266 11.097800
C 1.047813 -6.190790 11.060837
C 1.123310 -7.018158 9.772024
C 2.168845 -6.558711 8.750617
C 2.228055 -5.051284 8.488815
O 2.495541 -4.734496 7.109984
C 3.634601 -5.199453 6.554912
O 4.522002 -5.793900 7.150286
C 3.687845 -4.889442 5.083657
C 2.631103 -4.500297 4.330367
H -8.388093 2.027134 7.172074
H -7.663538 3.553769 7.704212
H -9.391910 3.258647 7.961406
H -8.898999 1.461087 9.574205
H -8.119268 2.964168 10.077704
H -6.769924 0.650600 8.586772
H -5.972165 2.170433 9.002469
H -6.393127 1.723205 11.434139
H -7.178294 0.197960 11.013604
H -4.272605 0.929262 10.359167
H -5.060380 -0.593013 9.937101
H -4.612988 0.457876 12.785640
H -5.458680 -1.041643 12.383624
H -2.539344 -0.394757 11.697740
H -3.404792 -1.849234 11.192272
H -2.957716 -1.002219 14.105786
H -3.777521 -2.470963 13.585033
H -0.829791 -1.768563 13.148774
H -1.480376 -2.957416 14.275493
H -2.437677 -4.228289 12.279172
H -1.604153 -3.086367 11.221932
H -0.256802 -4.957527 13.225343
H 0.588780 -3.738438 12.262665
H -1.099560 -6.038220 11.141407
H -0.337804 -4.788118 10.169707
H 1.931389 -5.553349 11.175979
H 1.041357 -6.871991 11.920883
H 0.142728 -7.049660 9.280113
H 1.356322 -8.056620 10.035400
H 3.156045 -6.882418 9.105736
H 1.992532 -7.104395 7.816399
H 1.262973 -4.583870 8.698411
H 2.976687 -4.562219 9.123471
H 2.805872 -4.311871 3.270510
C 0.865048 6.431583 -11.934928
C -0.215639 5.367544 -11.820432
C -1.605210 5.994565 -11.710847
C -2.737674 4.964329 -11.641702
C -2.681352 3.988679 -10.461401
C -2.667577 4.681775 -9.096987
C -2.722254 3.663556 -7.956945
C -2.553174 4.341717 -6.595284
C -2.614308 3.316617 -5.462372
C -2.189612 3.919781 -4.124314
C -2.466152 2.991179 -2.943203
C -1.537068 1.773519 -2.849871
C -2.129789 0.755359 -1.879590
C -1.203867 -0.406707 -1.528646
C -1.975946 -1.439527 -0.698498
C -1.085716 -2.515448 -0.095911
O -0.498819 -2.036499 1.118540
C 0.225735 -2.995179 1.751656
O 0.462012 -4.117929 1.322598
C 0.610343 -2.560694 3.129787
C 1.265733 -1.405340 3.363413
H 1.850307 5.962990 -12.023697
H 0.705646 7.061036 -12.816839
H 0.874556 7.075375 -11.048720
H -0.003968 4.753193 -10.939641
H -0.171218 4.710353 -12.696106
H -1.648768 6.657133 -10.838622
H -1.779999 6.631490 -12.588233
H -2.745215 4.383166 -12.572522
H -3.692366 5.503418 -11.607958
H -1.803167 3.339748 -10.554910
H -3.556820 3.329840 -10.523018
H -1.757298 5.283449 -8.994455
H -3.521595 5.365888 -9.018880
H -1.927296 2.919588 -8.091702
H -3.677240 3.124880 -7.988027
H -3.338481 5.093556 -6.450172
H -1.594790 4.871865 -6.567720
H -1.958420 2.473545 -5.701346
H -3.636663 2.927268 -5.390359
H -1.127829 4.176978 -4.157631
H -2.737875 4.854594 -3.960336
H -2.374930 3.568144 -2.014894
H -3.506440 2.660188 -2.998471
H -0.542742 2.086426 -2.512492
H -1.414614 1.306332 -3.828398
H -2.418421 1.264387 -0.957927
H -3.047825 0.355911 -2.317323
H -0.329232 -0.038921 -0.982875
H -0.834439 -0.882882 -2.442255
H -2.704754 -1.922841 -1.358763
H -2.533401 -0.937397 0.101126
H -0.294239 -2.807574 -0.787277
H -1.705040 -3.390531 0.134721
H 1.558458 -1.147195 4.378027
C 3.771290 9.112290 5.065748
C 4.623198 8.380698 6.092040
C 4.305562 8.770614 7.538374
C 2.891295 8.379034 7.972744
C 2.650766 8.706999 9.450118
C 1.254798 8.299116 9.931394
C 0.142781 9.171005 9.346368
C -1.237857 8.714634 9.822886
C -2.354841 9.542708 9.178074
C -3.472370 8.706887 8.546784
C -3.183459 8.210967 7.125123
C -2.191652 7.048460 7.036684
C -2.109069 6.514678 5.603809
C -0.992555 5.489682 5.397069
C -1.208209 4.177882 6.152301
C -0.153746 3.144130 5.764608
O -0.437313 2.628916 4.451459
C 0.648815 2.288715 3.718273
O 1.816507 2.469798 4.041754
C 0.262426 1.493479 2.506097
C -0.847280 1.719923 1.765401
H 3.844356 10.196332 5.194731
H 2.718366 8.823914 5.138945
H 4.106505 8.868744 4.052844
H 4.501690 7.298959 5.961793
H 5.677709 8.607378 5.896316
H 4.444715 9.851053 7.665843
H 5.033143 8.278077 8.194704
H 2.161827 8.909640 7.353301
H 2.740334 7.305601 7.807575
H 3.394597 8.175776 10.056883
H 2.805475 9.778129 9.626140
H 1.227092 8.376251 11.024735
H 1.076301 7.245212 9.685687
H 0.305582 10.216076 9.636374
H 0.170212 9.132828 8.252239
H -1.368463 7.645403 9.623884
H -1.292677 8.829274 10.913063
H -2.804177 10.157076 9.970001
H -1.960725 10.249995 8.437592
H -3.747386 7.868862 9.198427
H -4.359967 9.350346 8.483599
H -2.827537 9.047104 6.510056
H -4.135114 7.887332 6.685120
H -1.196329 7.378586 7.349415
H -2.504826 6.245452 7.714861
H -1.926620 7.352244 4.919612
H -3.072176 6.076727 5.314066
H -0.030582 5.928805 5.690568
H -0.925067 5.277024 4.325979
H -1.151908 4.357366 7.231511
H -2.204801 3.788973 5.924604
H 0.846118 3.585102 5.840594
H -0.201068 2.298882 6.458066
H -1.043422 1.064420 0.922006
C -4.873145 -8.081914 1.481791
C -3.771923 -8.795869 2.251112
C -3.523738 -8.217519 3.648230
C -4.665606 -8.507599 4.626151
C -4.353917 -8.109586 6.073659
C -4.197855 -6.600101 6.282393
C -4.046116 -6.263792 7.772013
C -3.959668 -4.761963 8.065568
C -2.710606 -4.111432 7.475299
C -2.588783 -2.634438 7.855911
C -1.489604 -1.960496 7.029878
C -1.241810 -0.495342 7.389368
C -2.469862 0.417990 7.342223
C -3.181839 0.433153 5.987360
C -4.360375 1.409282 6.005552
C -5.175811 1.366356 4.720433
O -4.470950 2.008475 3.644935
C -4.284801 1.266074 2.526616
O -4.382386 0.053053 2.424782
C -4.015365 2.169422 1.374952
C -4.855224 2.235095 0.308621
H -4.640138 -7.018713 1.363446
H -4.972021 -8.516057 0.480951
H -5.841142 -8.173218 1.983402
H -2.846411 -8.718713 1.670429
H -4.009301 -9.863516 2.324381
H -2.603763 -8.665782 4.041335
H -3.348663 -7.138143 3.570639
H -4.879907 -9.583175 4.610789
H -5.580404 -8.002372 4.303383
H -5.172915 -8.474860 6.706038
H -3.444520 -8.623634 6.407851
H -5.071349 -6.077474 5.875901
H -3.320668 -6.250032 5.729302
H -4.909454 -6.664551 8.316560
H -3.158036 -6.766577 8.174876
H -3.957192 -4.621148 9.153392
H -4.856070 -4.261110 7.681094
H -1.818494 -4.641890 7.827969
H -2.739475 -4.192931 6.383262
H -2.361469 -2.545173 8.923988
H -3.548943 -2.136866 7.682295
H -0.549206 -2.509389 7.161360
H -1.741065 -2.031262 5.965636
H -0.810884 -0.445009 8.397398
H -0.478413 -0.101690 6.707302
H -3.174857 0.119116 8.126855
H -2.152947 1.435676 7.598198
H -2.477671 0.704811 5.194455
H -3.561217 -0.567251 5.757097
H -5.019437 1.154477 6.843204
H -3.992145 2.426721 6.174902
H -5.481046 0.341152 4.483618
H -6.093112 1.944187 4.871125
H -4.567155 2.905639 -0.500637
C 9.072797 6.401523 -2.915101
C 8.104660 7.574180 -2.885075
C 6.764980 7.202715 -3.516529
C 5.790119 8.384748 -3.528625
C 4.445218 7.949074 -4.104559
C 3.381295 9.047866 -4.181386
C 3.018538 9.651584 -2.820351
C 1.639380 10.328579 -2.817642
C 0.508140 9.304676 -2.689236
C -0.879038 9.948766 -2.624040
C -1.942276 8.874991 -2.369114
C -3.350817 9.461688 -2.233989
C -4.353535 8.430120 -1.703880
C -4.748512 7.363123 -2.728513
C -5.335481 6.133754 -2.033482
C -5.902846 5.126298 -3.026637
O -6.066880 3.872775 -2.346114
C -6.354610 2.839430 -3.176335
O -6.618844 2.936964 -4.365606
C -6.221637 1.534388 -2.449106
C -5.709073 0.542141 -3.215380
H 9.270977 6.081231 -3.943649
H 10.026294 6.684425 -2.458962
H 8.669745 5.546812 -2.361655
H 7.948523 7.883873 -1.846092
H 8.548056 8.424221 -3.416398
H 6.924031 6.851919 -4.543247
H 6.322332 6.367358 -2.957928
H 6.203994 9.208359 -4.121819
H 5.655541 8.747024 -2.505204
H 4.597206 7.547199 -5.113923
H 4.060323 7.126680 -3.493376
H 3.722187 9.846003 -4.852401
H 2.493411 8.609411 -4.650027
H 3.049542 8.884311 -2.037888
H 3.776465 10.399450 -2.558651
H 1.591945 11.012202 -1.961169
H 1.509424 10.934466 -3.722061
H 0.535102 8.604526 -3.532307
H 0.667582 8.719020 -1.775460
H -0.904936 10.690990 -1.817330
H -1.093594 10.473894 -3.562433
H -1.919724 8.143818 -3.185049
H -1.686290 8.334978 -1.448626
H -3.321358 10.299573 -1.526995
H -3.688863 9.865822 -3.195268
H -5.263722 8.954887 -1.389645
H -3.938910 7.958655 -0.803825
H -5.479068 7.788139 -3.428205
H -3.882562 7.050107 -3.321294
H -4.559000 5.652099 -1.425632
H -6.125056 6.427184 -1.333401
H -5.212172 4.998045 -3.867227
H -6.872898 5.468013 -3.403705
H -5.384379 0.815523 -4.221530
C 9.359602 7.962194 -6.744626
C 8.721272 7.250697 -7.925848
C 8.431777 5.780941 -7.618405
C 7.794104 5.091278 -8.825492
C 7.528359 3.605790 -8.566520
C 6.937231 2.942393 -9.812567
C 6.798240 1.424295 -9.694929
C 5.738116 0.971004 -8.687771
C 5.549687 -0.545517 -8.768431
C 4.490678 -1.065610 -7.793505
C 4.291453 -2.567534 -7.993423
C 3.288640 -3.217058 -7.040148
C 1.805523 -2.984980 -7.362978
C 1.216140 -1.725483 -6.719936
C -0.311418 -1.809123 -6.601554
C -0.865053 -0.833644 -5.560827
O -2.077872 -1.379818 -5.011256
C -3.234926 -0.777093 -5.368659
O -3.363207 0.250572 -6.014815
C -4.359960 -1.677840 -5.036509
C -4.703076 -2.470643 -6.073924
H 10.281412 7.461006 -6.431613
H 8.675443 7.989491 -5.893256
H 9.606475 8.994123 -7.012451
H 9.392218 7.321546 -8.789770
H 7.791295 7.765246 -8.195007
H 9.364870 5.270324 -7.353010
H 7.762411 5.705219 -6.753222
H 6.851658 5.592532 -9.079247
H 8.457043 5.196206 -9.693363
H 6.841062 3.498760 -7.719879
H 8.466215 3.108372 -8.291925
H 7.590109 3.152260 -10.669240
H 5.962523 3.386882 -10.044153
H 7.767737 0.982758 -9.434953
H 6.534655 1.035098 -10.685946
H 4.786792 1.471678 -8.900584
H 6.035977 1.251917 -7.671896
H 5.260333 -0.814884 -9.792175
H 6.506204 -1.041949 -8.565532
H 4.801527 -0.862718 -6.761901
H 3.552728 -0.533695 -7.962265
H 4.001484 -2.775577 -9.029260
H 5.261007 -3.062718 -7.841217
H 3.515071 -2.935459 -6.006237
H 3.459747 -4.299787 -7.101032
H 1.264837 -3.857210 -6.971707
H 1.632634 -2.976124 -8.443822
H 1.653091 -1.598372 -5.725675
H 1.484476 -0.837992 -7.298074
H -0.624466 -2.826736 -6.341403
H -0.772426 -1.602144 -7.573306
H -0.999333 0.163013 -5.994928
H -0.175474 -0.726375 -4.721534
H -4.173867 -2.409102 -7.024934
C -4.448606 11.970861 1.331800
C -5.758599 11.242156 1.078196
C -5.718553 9.819282 1.629708
C -7.035449 9.078034 1.382639
C -6.936123 7.625171 1.850899
C -8.272614 6.880734 1.854722
C -8.917811 6.730313 0.474309
C -10.132719 5.803891 0.553949
C -10.928754 5.699233 -0.747657
C -10.145869 5.085397 -1.913913
C -11.098988 4.693027 -3.046304
C -10.363633 4.163786 -4.280883
C -11.364064 3.569871 -5.277191
C -10.800960 3.359989 -6.683572
C -9.580553 2.450579 -6.795887
C -9.802529 1.030974 -6.281122
O -8.726874 0.227202 -6.784698
C -8.641713 -1.036708 -6.292191
O -9.384413 -1.528638 -5.457755
C -7.473347 -1.744825 -6.900845
C -6.857084 -1.229645 -7.932084
H -4.490875 12.984313 0.920535
H -3.610103 11.446675 0.861317
H -4.245638 12.047988 2.405463
H -5.953039 11.218456 -0.000166
H -6.578538 11.800077 1.543677
H -4.891382 9.268748 1.167266
H -5.514959 9.849527 2.707385
H -7.279610 9.108255 0.314463
H -7.845136 9.589653 1.916704
H -6.216419 7.086411 1.222380
H -6.537248 7.604483 2.872890
H -8.098705 5.884437 2.279314
H -8.970613 7.390977 2.530028
H -8.188171 6.321841 -0.231287
H -9.228039 7.711745 0.097762
H -10.810117 6.167547 1.336363
H -9.810361 4.801325 0.861528
H -11.293947 6.692132 -1.037414
H -11.816477 5.086993 -0.545187
H -9.601081 4.197029 -1.574556
H -9.404632 5.803725 -2.283020
H -11.702869 5.562720 -3.334952
H -11.794791 3.928574 -2.678258
H -9.641191 3.394353 -3.985767
H -9.801557 4.982533 -4.745205
H -12.229598 4.238642 -5.365662
H -11.750328 2.621848 -4.882914
H -10.545979 4.337676 -7.110739
H -11.601838 2.952305 -7.314305
H -9.282947 2.406030 -7.851198
H -8.723714 2.894308 -6.277519
H -9.805386 1.016446 -5.186102
H -10.747865 0.626830 -6.659751
H -6.373035 -0.779658 -8.766777
