448
Molecule ID: homopoly_766745
C 4.147250 -9.920301 2.063132
O 4.243168 -9.042955 0.921818
C 3.189444 -9.184495 0.106648
O 2.190205 -9.877059 0.153667
C 3.722393 -8.698565 -1.164859
C 4.361618 -8.222616 -2.159045
C 5.728119 -8.524850 -1.776619
C 6.331186 -9.706005 -2.150336
C 7.428306 -10.228867 -1.474512
C 7.944243 -9.576803 -0.315322
O 8.914070 -10.078145 0.512755
C 9.561407 -11.310552 0.108261
C 7.308926 -8.399714 0.105749
O 7.841368 -7.754728 1.176286
C 7.060671 -6.755557 1.800462
C 6.229546 -7.877796 -0.624392
H 4.261904 -9.413172 3.051281
H 4.961567 -10.644082 1.937680
H 3.237982 -10.543437 2.037089
H 5.944398 -10.218272 -3.051664
H 7.887149 -11.151006 -1.805572
H 8.823374 -12.103053 -0.000990
H 10.156340 -11.160621 -0.797241
H 10.233301 -11.525873 0.913344
H 6.915038 -5.899115 1.117962
H 7.600589 -6.371071 2.690292
H 6.090508 -7.158870 2.117603
H 5.749424 -6.941055 -0.315313
C 3.200705 -8.546284 -7.949993
O 3.384441 -7.954032 -6.643951
C 2.763488 -6.752970 -6.527224
O 2.142625 -6.123476 -7.353217
C 3.054881 -6.188546 -5.172810
C 2.211319 -5.302075 -4.612536
C 2.632536 -4.775893 -3.252167
C 1.781217 -5.146474 -2.220881
C 2.081496 -4.750193 -0.964923
C 3.175295 -3.948819 -0.718472
O 3.267506 -3.452798 0.610177
C 4.494568 -2.749095 1.102506
C 4.071130 -3.599421 -1.749519
O 5.173949 -2.849310 -1.455149
C 6.001695 -2.373235 -2.571739
C 3.777977 -4.014681 -2.992067
H 2.594372 -7.902027 -8.656861
H 4.207324 -8.726832 -8.400139
H 2.678338 -9.540485 -7.833889
H 0.880475 -5.773101 -2.372815
H 1.459845 -5.038075 -0.127588
H 4.281234 -2.542411 2.174990
H 4.590371 -1.833794 0.460320
H 5.344448 -3.453343 0.934598
H 6.781913 -1.753448 -2.150745
H 6.505446 -3.227671 -3.043095
H 5.444885 -1.817469 -3.285142
H 4.442728 -3.820353 -3.805677
C -1.171858 -4.396874 -9.502320
O -0.981984 -4.412431 -8.059293
C -1.029416 -3.169795 -7.528498
O -1.141396 -2.124790 -8.130618
C -0.872868 -3.266733 -5.952148
C -1.469709 -2.356983 -5.061478
C -1.792133 -1.046509 -5.624729
C -0.841289 -0.293928 -6.313895
C -1.262177 0.812599 -7.097985
C -2.570431 1.231901 -7.057867
O -3.048775 2.326242 -7.746327
C -2.226975 2.747510 -8.839575
C -3.449240 0.587227 -6.175086
O -4.720068 0.992526 -6.009530
C -4.741192 1.849591 -4.853751
C -3.066210 -0.584068 -5.476382
H -1.130198 -5.435709 -9.813432
H -0.367711 -3.831242 -9.973563
H -2.165103 -3.993074 -9.745703
H 0.167253 -0.656814 -6.388653
H -0.484552 1.300342 -7.656892
H -2.721237 3.603026 -9.333153
H -2.103673 1.942921 -9.567537
H -1.253915 3.108419 -8.466465
H -4.024473 2.658229 -4.983973
H -5.752712 2.245530 -4.709731
H -4.483382 1.248607 -3.965497
H -3.762066 -1.063951 -4.770020
C -4.163484 1.688094 -0.888148
O -3.841668 0.449347 -1.586013
C -2.928791 -0.501076 -1.216708
O -1.895543 -0.359955 -0.524394
C -3.378807 -1.734172 -1.885187
C -4.731143 -2.066125 -1.612723
C -5.401481 -2.864762 -2.683984
C -5.639071 -4.217185 -2.441866
C -6.405982 -4.965129 -3.338209
C -6.978691 -4.349822 -4.474615
O -7.684431 -5.018700 -5.439011
C -8.289679 -6.301554 -5.112976
C -6.737423 -3.018799 -4.753347
O -7.315834 -2.488791 -5.878660
C -6.908069 -1.133265 -6.263402
C -5.954374 -2.298825 -3.867203
H -3.531846 2.466629 -1.260458
H -5.196260 1.887903 -1.150136
H -4.152422 1.573652 0.195745
H -5.236681 -4.677309 -1.538530
H -6.537610 -6.029789 -3.147096
H -9.005406 -6.499356 -5.880969
H -7.522959 -7.083255 -5.260303
H -8.742735 -6.287287 -4.139727
H -7.452235 -0.920964 -7.170306
H -7.179798 -0.394237 -5.519928
H -5.844209 -1.134344 -6.475596
H -5.773324 -1.233065 -4.042983
C -9.549216 0.980592 1.397350
O -8.394521 0.171450 1.012066
C -7.241413 0.797259 1.373812
O -7.285142 1.972141 1.848922
C -5.964627 -0.018621 1.444244
C -5.394512 0.381289 2.650438
C -6.352634 0.924263 3.854691
C -7.482686 0.174240 4.090957
C -8.319126 0.529642 5.090845
C -7.861410 1.250799 6.159233
O -8.571551 1.403945 7.333619
C -9.802543 0.612145 7.412374
C -6.627323 1.878332 6.057709
O -5.999378 2.254924 7.232144
C -5.374960 3.669161 7.278028
C -5.928599 1.899438 4.800023
H -9.716722 1.868348 0.760724
H -10.449020 0.342169 1.409679
H -9.530081 1.372720 2.429165
H -7.840206 -0.505989 3.290833
H -9.263127 0.046209 5.064734
H -10.440849 1.025265 8.181324
H -10.433341 0.738895 6.518355
H -9.591861 -0.435663 7.619925
H -6.162641 4.345910 7.683113
H -4.449753 3.637304 7.897084
H -5.222759 3.986027 6.245637
H -4.950641 2.361316 4.829623
C 1.039701 -1.099308 1.477028
O -0.210426 -0.635550 1.900653
C -0.075164 0.526776 2.515384
O 1.035260 1.046386 2.759473
C -1.357710 1.211996 2.906875
C -1.214733 2.572085 2.987986
C -2.342072 3.496698 3.339905
C -3.454234 3.788646 2.512856
C -4.453349 4.619794 2.999243
C -4.300789 5.227798 4.238885
O -5.261877 6.117907 4.716644
C -6.586705 6.003356 4.166453
C -3.134752 5.027432 5.002719
O -3.154891 5.677009 6.238919
C -2.049461 5.433975 7.155960
C -2.141071 4.183036 4.531476
H 1.572128 -0.326690 0.898631
H 1.693822 -1.445482 2.301203
H 0.902105 -1.947903 0.795168
H -3.636773 3.300198 1.557452
H -5.328064 4.742284 2.401948
H -6.618858 6.475067 3.189298
H -6.932157 4.968949 4.080699
H -7.257886 6.547251 4.819573
H -2.362986 5.886925 8.085475
H -1.843100 4.383125 7.334088
H -1.183171 5.962343 6.782045
H -1.251184 3.976415 5.113017
C 4.805334 1.649635 0.767123
O 4.188608 2.717685 1.454081
C 2.836327 2.755056 1.324833
O 2.241736 2.065727 0.503778
C 2.089327 3.783303 2.192642
C 2.717135 4.438025 3.234454
C 3.938357 3.705090 3.683725
C 3.795595 2.343781 4.075244
C 4.943363 1.606810 4.482651
C 6.181619 2.197585 4.512513
O 7.334227 1.563422 4.957416
C 7.178345 0.207854 5.364882
C 6.315581 3.584454 4.133341
O 7.640529 4.053011 4.196748
C 7.935045 5.476671 4.306842
C 5.173516 4.318753 3.723573
H 5.040476 1.989480 -0.231018
H 4.222118 0.735445 0.712806
H 5.729080 1.372647 1.271674
H 2.828324 1.881186 4.000372
H 4.744812 0.586258 4.766818
H 6.694462 -0.400752 4.606774
H 6.680535 0.147381 6.342702
H 8.185599 -0.192933 5.508294
H 7.048021 5.998539 4.678896
H 8.264400 5.881624 3.332140
H 8.708953 5.541579 5.078918
H 5.321898 5.363721 3.417186
C 4.824796 6.107249 0.673943
O 3.647298 6.065737 1.529556
C 3.321954 7.318635 1.874684
O 4.064299 8.276551 1.675724
C 2.000031 7.465999 2.576990
C 1.294706 8.553599 2.188284
C 0.043795 9.084493 2.985052
C 0.173895 10.171824 3.888315
C -0.964084 10.762361 4.431439
C -2.224490 10.332584 4.052635
O -3.403316 10.846615 4.557025
C -3.366910 11.829467 5.592186
C -2.352946 9.319732 3.072582
O -3.634484 8.987186 2.736125
C -3.871318 7.869252 1.862185
C -1.232656 8.725098 2.527993
H 5.065517 5.083105 0.333594
H 4.675389 6.749255 -0.202176
H 5.694650 6.461983 1.224691
H 1.166264 10.513680 4.175353
H -0.807992 11.542480 5.155095
H -3.074518 11.381145 6.557029
H -4.381630 12.209775 5.728672
H -2.716717 12.662360 5.331875
H -3.710288 8.132365 0.822739
H -3.266917 6.987792 2.116435
H -4.914724 7.593787 1.983758
H -1.326913 7.993984 1.741006
C 0.486670 -9.465417 -2.516532
O 1.880271 -9.317033 -2.787956
C 2.186113 -8.142859 -3.426674
O 1.308745 -7.538109 -4.070588
C 3.648146 -7.732315 -3.337522
C 4.101065 -6.860894 -4.314203
C 5.523200 -6.446055 -4.561506
C 6.034635 -6.425631 -5.881407
C 7.335085 -6.002515 -6.159936
C 8.147358 -5.544212 -5.150935
O 9.430379 -5.114968 -5.308761
C 10.005526 -5.063771 -6.637554
C 7.649887 -5.522342 -3.833076
O 8.524659 -4.972715 -2.917142
C 8.356833 -5.234050 -1.536566
C 6.352193 -5.958691 -3.548813
H 0.454580 -10.043432 -1.601967
H -0.045341 -9.991931 -3.305865
H -0.005235 -8.475682 -2.311901
H 5.401351 -6.746491 -6.711167
H 7.643290 -6.058573 -7.193987
H 10.207601 -6.076277 -6.985232
H 10.965060 -4.540669 -6.555026
H 9.374390 -4.499381 -7.310440
H 9.173504 -4.729601 -1.006124
H 7.413686 -4.836253 -1.133368
H 8.455280 -6.311529 -1.307977
H 5.983886 -5.859743 -2.533386
C 2.087796 -2.164770 -8.158275
O 1.372690 -3.020940 -7.251331
C 2.017337 -3.345936 -6.101132
O 3.142934 -3.008062 -5.765420
C 1.215641 -4.386163 -5.392142
C -0.185203 -4.511709 -5.474462
C -1.108019 -5.751872 -5.428290
C -2.482543 -5.507111 -5.240536
C -3.425824 -6.534843 -5.157601
C -3.005937 -7.831029 -5.408562
O -3.824746 -8.925130 -5.295178
C -5.242282 -8.733659 -5.104228
C -1.688106 -8.073607 -5.762826
O -1.359844 -9.388230 -6.040443
C -0.007576 -9.667099 -6.422322
C -0.751735 -7.045927 -5.821166
H 2.880141 -1.508883 -7.679046
H 1.346469 -1.499747 -8.624406
H 2.544482 -2.761270 -8.963066
H -2.869432 -4.519887 -5.050739
H -4.427382 -6.284979 -4.915680
H -5.614443 -7.992071 -5.778513
H -5.466347 -8.482610 -4.048480
H -5.753389 -9.670057 -5.335073
H 0.694246 -9.506419 -5.587818
H 0.299648 -9.120701 -7.297972
H 0.031829 -10.721698 -6.647246
H 0.253935 -7.219884 -6.145637
C 1.986756 -1.146789 -3.272479
O 0.777941 -1.654623 -3.879422
C -0.165160 -1.976578 -2.938682
O 0.046328 -1.829108 -1.722832
C -1.340053 -2.580779 -3.524657
C -2.320478 -2.666017 -2.507811
C -1.917596 -3.806622 -1.541033
C -2.265614 -5.086008 -2.008651
C -2.032329 -6.232779 -1.286145
C -1.409886 -6.167790 -0.083796
O -1.152831 -7.241372 0.754535
C -1.567227 -8.569887 0.412685
C -1.004514 -4.908560 0.404630
O -0.443885 -5.052299 1.712671
C 0.560475 -4.262477 2.299099
C -1.275335 -3.734615 -0.271002
H 2.212511 -1.618008 -2.284118
H 1.893323 -0.056059 -3.151352
H 2.841512 -1.350595 -3.932739
H -2.817586 -5.131087 -2.922478
H -2.373239 -7.148888 -1.709998
H -1.622559 -8.767478 -0.660980
H -0.800261 -9.231115 0.844713
H -2.521646 -8.775332 0.875143
H 0.166336 -3.447067 2.911148
H 1.211423 -3.872566 1.535317
H 1.115643 -4.951130 2.933441
H -0.985683 -2.755298 0.141707
C -8.929348 -0.346276 -1.838379
O -7.867941 -0.880994 -1.032905
C -6.658952 -0.421924 -1.458954
O -6.395030 0.183943 -2.498495
C -5.667067 -1.198700 -0.692370
C -5.606783 -1.231071 0.662684
C -5.834491 -2.596415 1.472871
C -6.621528 -3.591474 0.913236
C -6.953721 -4.730808 1.730712
C -6.648782 -4.840231 3.075885
O -6.923470 -5.966368 3.850697
C -7.875208 -6.944124 3.363187
C -5.907242 -3.794078 3.612692
O -5.335301 -3.824881 4.973965
C -5.481478 -5.030746 5.764197
C -5.527589 -2.723669 2.803040
H -8.809444 0.737520 -2.209001
H -9.035479 -0.995783 -2.708408
H -9.888623 -0.378345 -1.272592
H -6.935341 -3.586778 -0.101758
H -7.563963 -5.494681 1.198550
H -8.707404 -6.496212 2.819090
H -7.348808 -7.703038 2.749898
H -8.304346 -7.452198 4.240043
H -6.537150 -5.293195 5.909841
H -5.062685 -4.933586 6.805468
H -4.984710 -5.881057 5.225439
H -4.919876 -1.984821 3.266238
C -4.975827 -1.037993 6.111624
O -4.808260 -0.608122 4.781702
C -3.823402 0.378295 4.633419
O -3.225637 0.891124 5.613507
C -3.822517 0.784429 3.042907
C -2.508103 0.286632 3.182583
C -2.005053 -1.038352 3.771255
C -1.317964 -1.110186 5.013915
C -1.230369 -2.297049 5.660507
C -1.788736 -3.450466 5.055432
O -1.660359 -4.747681 5.515399
C -0.659925 -5.261860 6.520479
C -2.392028 -3.356207 3.816945
O -2.369786 -4.476170 2.979982
C -3.301628 -5.576175 2.787186
C -2.441544 -2.174045 3.174710
H -5.249289 -0.301350 6.845479
H -5.793218 -1.758230 6.130492
H -4.088043 -1.600703 6.360872
H -1.082790 -0.192247 5.582143
H -0.830207 -2.329656 6.624678
H -0.789913 -4.806127 7.519811
H 0.339176 -5.068929 6.102677
H -0.827147 -6.343422 6.600767
H -4.190489 -5.315368 3.307323
H -2.737597 -6.340328 3.286886
H -3.577658 -5.650064 1.700193
H -2.943253 -2.094002 2.199887
C -0.681536 2.572609 -1.898761
O -0.058333 2.663894 -0.594857
C -0.882085 2.586901 0.470217
O -2.036112 2.191701 0.372826
C -0.322816 3.118064 1.762185
C 0.687472 4.042227 1.689396
C 0.507266 4.951544 0.502515
C -0.753718 5.522623 0.379769
C -1.170606 6.087139 -0.777683
C -0.335669 6.082371 -1.914405
O -0.679721 6.719747 -3.092539
C -1.949595 7.402359 -3.113210
C 0.935292 5.457004 -1.839864
O 1.709192 5.453841 -2.975945
C 2.914460 4.680060 -2.940728
C 1.365952 4.934620 -0.634382
H -1.122869 1.581488 -2.056781
H 0.137085 2.786250 -2.586198
H -1.434354 3.340738 -1.982582
H -1.457413 5.415735 1.223113
H -2.138157 6.560207 -0.811182
H -2.784300 6.700576 -3.091108
H -2.024452 8.118424 -2.299035
H -2.036304 7.987216 -4.038115
H 2.725341 3.625052 -2.719278
H 3.332979 4.750788 -3.943753
H 3.649947 5.109074 -2.235097
H 2.292781 4.355872 -0.570010
C 1.306311 5.112505 7.830204
O 1.212199 5.507598 6.437337
C 2.170452 4.958417 5.644561
O 2.832552 3.974889 6.047095
C 2.153535 5.433376 4.187651
C 1.799897 6.723406 3.877132
C 1.582554 7.597563 5.076895
C 0.294711 7.847339 5.621528
C 0.164714 8.588840 6.794538
C 1.311649 9.033020 7.468489
O 1.305053 9.747858 8.642699
C 0.043205 10.091773 9.212233
C 2.581640 8.704613 6.960809
O 3.674976 9.130572 7.685160
C 4.967224 8.798961 7.209247
C 2.719102 8.012894 5.780520
H 2.347305 5.101856 8.164489
H 0.787678 5.858127 8.426880
H 0.838029 4.139414 7.946836
H -0.624670 7.525267 5.102946
H -0.816888 8.836155 7.133788
H 0.245635 10.642386 10.134117
H -0.529377 10.744235 8.543997
H -0.521642 9.193485 9.478196
H 5.073510 7.747983 6.918636
H 5.259836 9.465236 6.371624
H 5.667920 8.954076 8.051026
H 3.672770 7.722600 5.363255
C -0.988685 11.814756 -0.221044
O 0.004265 10.749517 -0.121977
C 0.855621 10.747026 0.947957
O 0.921444 11.615288 1.813087
C 1.494617 9.424014 1.021027
C 1.877514 9.084098 -0.177356
C 2.279986 9.275630 -1.545439
C 2.837661 8.273203 -2.303946
C 3.203972 8.573630 -3.620609
C 3.007171 9.872265 -4.131880
O 3.407678 10.222696 -5.413658
C 3.727435 9.171719 -6.315988
C 2.467441 10.876953 -3.314025
O 2.399700 12.122560 -3.884354
C 2.004968 13.252359 -3.035273
C 2.102529 10.583121 -2.023808
H -1.853996 11.385064 -0.743258
H -0.560080 12.595332 -0.851097
H -1.311007 12.208379 0.759646
H 3.050896 7.328730 -1.881955
H 3.706848 7.827937 -4.163260
H 4.561905 8.543355 -5.981890
H 2.846831 8.562947 -6.563475
H 4.050355 9.670040 -7.238666
H 2.601736 13.284556 -2.126870
H 0.948274 13.185214 -2.806143
H 2.187970 14.127271 -3.631578
H 1.701669 11.365324 -1.394360
