320
Molecule ID: homopoly_958751
C 8.481475 -7.737471 6.622432
O 7.374807 -6.865446 6.436868
C 7.503620 -6.034700 5.365944
O 8.451673 -5.981180 4.601908
C 6.348856 -5.216801 5.182442
C 5.247458 -4.521098 4.994937
C 3.958321 -5.281503 5.089983
C 3.796239 -6.511004 4.420092
C 2.632941 -7.269670 4.577020
C 1.618884 -6.805233 5.409762
F 0.506921 -7.533909 5.560126
C 1.738416 -5.594369 6.076632
C 2.900672 -4.833328 5.907050
H 8.296905 -8.341065 7.522428
H 8.575815 -8.428261 5.774281
H 9.408527 -7.178526 6.766784
H 4.580573 -6.892686 3.772118
H 2.507991 -8.209521 4.050549
H 0.937448 -5.250422 6.719174
H 2.968790 -3.899165 6.458060
C 8.916843 -2.308881 2.824735
O 7.538401 -2.553399 3.115839
C 6.640460 -2.250966 2.139885
O 6.922900 -1.878064 1.019820
C 5.239901 -2.476658 2.687075
C 4.190642 -2.619597 1.816760
C 2.870872 -3.094827 2.309569
C 1.988006 -2.282747 3.026345
C 0.769119 -2.794327 3.467681
C 0.402895 -4.093312 3.138708
F -0.781537 -4.569048 3.545152
C 1.238318 -4.895202 2.377545
C 2.474026 -4.400141 1.963992
H 9.317751 -1.708811 3.645968
H 9.438205 -3.268037 2.805329
H 9.090436 -1.761941 1.887914
H 2.234471 -1.245072 3.245734
H 0.095328 -2.194997 4.067058
H 0.934796 -5.905085 2.124179
H 3.127298 -5.038879 1.382631
C 6.766095 -5.877695 1.498661
O 5.661380 -5.202703 0.879349
C 6.048069 -4.522166 -0.234710
O 7.198473 -4.372415 -0.617129
C 4.854975 -4.046465 -1.008872
C 4.520130 -4.865654 -2.060308
C 5.239106 -6.183815 -2.204741
C 6.422646 -6.259323 -2.966046
C 7.094080 -7.464270 -3.122306
C 6.595108 -8.599107 -2.505150
F 7.231067 -9.776448 -2.657059
C 5.452231 -8.546159 -1.709535
C 4.782670 -7.336762 -1.549737
H 7.179261 -6.620143 0.809106
H 6.387986 -6.392512 2.383849
H 7.529318 -5.165699 1.810696
H 6.839371 -5.354449 -3.409997
H 8.004693 -7.528371 -3.721628
H 5.098910 -9.453898 -1.229020
H 3.923226 -7.296418 -0.893715
C 2.795180 -4.038196 -7.893482
O 2.291991 -4.476698 -6.624187
C 2.086779 -3.471282 -5.746431
O 2.332946 -2.285106 -5.930551
C 1.469439 -3.966714 -4.469971
C 0.139855 -3.616380 -4.444001
C -0.556740 -4.224207 -5.668916
C -1.084503 -5.522146 -5.528943
C -1.722136 -6.162063 -6.593418
C -1.825562 -5.503029 -7.807547
F -2.437852 -6.110921 -8.831019
C -1.294549 -4.228008 -7.985690
C -0.651328 -3.593979 -6.918700
H 1.984774 -3.632221 -8.500477
H 3.582228 -3.281914 -7.787104
H 3.223839 -4.907644 -8.406409
H -1.035061 -6.041214 -4.580058
H -2.138983 -7.156627 -6.469084
H -1.377653 -3.738871 -8.951667
H -0.212324 -2.619527 -7.086450
C -5.565375 -4.646446 -5.189984
O -4.868144 -3.568630 -4.551561
C -3.801013 -3.934342 -3.797569
O -3.299766 -5.055123 -3.764734
C -3.258230 -2.734091 -3.026740
C -4.071849 -2.299097 -2.009717
C -5.377331 -3.079610 -1.849997
C -6.596766 -2.457650 -2.176975
C -7.795378 -3.153752 -2.021998
C -7.766301 -4.467450 -1.551098
F -8.918895 -5.141557 -1.414888
C -6.570082 -5.095763 -1.212750
C -5.372862 -4.397177 -1.348239
H -5.477163 -5.595815 -4.648975
H -5.191569 -4.773172 -6.212517
H -6.621471 -4.381898 -5.224595
H -6.619423 -1.440097 -2.554682
H -8.746088 -2.683092 -2.254993
H -6.580646 -6.117888 -0.841281
H -4.435977 -4.880543 -1.077979
C -7.594620 1.595581 -1.893596
O -6.438310 1.005197 -1.303063
C -5.510037 1.909235 -0.909502
O -5.586235 3.120879 -1.051604
C -4.362519 1.184122 -0.226784
C -4.005257 1.652074 1.011929
C -2.808096 1.089559 1.688219
C -2.977467 0.091439 2.656447
C -1.945550 -0.223079 3.538681
C -0.734649 0.445927 3.426383
F 0.224647 0.210750 4.341262
C -0.507436 1.372441 2.415952
C -1.546930 1.690133 1.537765
H -8.209475 2.059156 -1.120261
H -8.173874 0.796586 -2.366016
H -7.339581 2.324820 -2.661969
H -3.958832 -0.356803 2.818481
H -2.105714 -0.930480 4.349994
H 0.450308 1.877192 2.352379
H -1.412282 2.481566 0.807428
C -7.356484 5.151402 4.891823
O -6.482725 4.718295 3.854196
C -5.708267 5.701856 3.322840
O -5.764811 6.880464 3.652025
C -4.730923 5.120096 2.318902
C -4.329727 5.919712 1.282508
C -5.257536 7.037054 0.867837
C -4.952149 8.395031 1.021080
C -5.833829 9.379324 0.564351
C -7.021412 9.006642 -0.050193
F -7.862798 9.951452 -0.486197
C -7.353624 7.671474 -0.222941
C -6.473041 6.691910 0.231778
H -7.765412 4.261039 5.372040
H -8.178456 5.733949 4.453297
H -6.821908 5.743133 5.650445
H -4.044300 8.706009 1.516521
H -5.591763 10.431773 0.681448
H -8.284265 7.406292 -0.720413
H -6.723228 5.646837 0.061137
C 2.605182 4.778463 -0.117770
O 1.442164 5.596673 -0.028000
C 0.287645 4.980237 -0.389790
O 0.143966 3.781041 -0.562987
C -0.806131 6.012754 -0.422349
C -0.713331 6.986046 -1.378970
C 0.341955 6.877682 -2.433149
C 1.395995 7.807877 -2.449717
C 2.409481 7.695698 -3.395452
C 2.364312 6.667210 -4.331780
F 3.349574 6.563368 -5.235778
C 1.327448 5.743960 -4.339253
C 0.303966 5.853734 -3.399603
H 3.465058 5.433689 -0.305262
H 2.755687 4.238947 0.822254
H 2.548624 4.068645 -0.950739
H 1.435940 8.605842 -1.712670
H 3.231790 8.409177 -3.408921
H 1.328994 4.943796 -5.080515
H -0.515736 5.131004 -3.411373
C 5.375505 -2.757474 8.808385
O 5.063340 -3.231450 7.497237
C 5.711411 -2.544340 6.515392
O 6.491482 -1.628085 6.714367
C 5.305803 -3.063080 5.153886
C 5.109735 -2.158826 4.150049
C 4.864568 -0.694743 4.479281
C 3.838166 -0.328906 5.368340
C 3.514306 1.012012 5.578727
C 4.204553 2.004287 4.892402
F 3.835060 3.280072 5.029672
C 5.238053 1.677106 4.024926
C 5.573591 0.333385 3.828910
H 5.052548 -1.718856 8.920073
H 4.827973 -3.369805 9.527053
H 6.445646 -2.858561 9.006632
H 3.254739 -1.089928 5.886184
H 2.717289 1.284324 6.264804
H 5.764659 2.457064 3.484174
H 6.377849 0.125578 3.125599
C 2.339457 0.992116 -0.263582
O 2.637329 -0.341270 0.161652
C 3.938059 -0.556738 0.469015
O 4.788060 0.303393 0.690683
C 4.217489 -2.047502 0.447967
C 4.451423 -2.627986 -0.779069
C 4.477772 -1.667523 -1.923387
C 3.290762 -1.279450 -2.571292
C 3.318368 -0.291410 -3.552351
C 4.525379 0.302753 -3.893173
F 4.542721 1.262462 -4.827772
C 5.712856 -0.066803 -3.267124
C 5.692668 -1.056373 -2.285803
H 1.852483 1.528715 0.554822
H 3.225615 1.544306 -0.602247
H 1.646983 0.923466 -1.107845
H 2.339413 -1.716957 -2.276717
H 2.413602 0.016762 -4.064129
H 6.644940 0.410604 -3.553095
H 6.620377 -1.329708 -1.784780
C 5.569348 -5.077576 -6.251267
O 4.578657 -5.140175 -5.227108
C 4.535717 -4.051949 -4.402471
O 5.232823 -3.060626 -4.518176
C 3.673647 -4.420388 -3.214555
C 2.331271 -4.638218 -3.431825
C 1.845584 -5.999006 -2.996218
C 1.690180 -6.966791 -4.024944
C 1.191574 -8.240783 -3.742987
C 0.867632 -8.567391 -2.433282
F 0.389249 -9.791271 -2.165957
C 1.036876 -7.651870 -1.401183
C 1.542121 -6.377567 -1.684886
H 5.346137 -5.845002 -6.999075
H 6.558562 -5.292557 -5.839404
H 5.570815 -4.107046 -6.753031
H 1.945477 -6.724183 -5.055430
H 1.060340 -8.972247 -4.535984
H 0.789844 -7.949648 -0.387225
H 1.686561 -5.679173 -0.860093
C -1.426217 -4.363839 0.146403
O -1.637651 -3.800096 -1.138450
C -0.536802 -3.597203 -1.892371
O 0.623024 -3.750579 -1.525051
C -0.820173 -3.191516 -3.308113
C -1.899663 -2.361491 -3.546873
C -1.798568 -1.444940 -4.758256
C -0.630532 -0.674934 -4.941042
C -0.437008 0.104521 -6.088356
C -1.429980 0.144555 -7.055714
F -1.258156 0.886830 -8.158643
C -2.607590 -0.572291 -6.893973
C -2.788275 -1.360579 -5.752061
H -2.347161 -4.887456 0.448876
H -0.631825 -5.114005 0.130512
H -1.221279 -3.572113 0.865593
H 0.165407 -0.694026 -4.203497
H 0.475668 0.663956 -6.231957
H -3.377663 -0.527653 -7.656811
H -3.714445 -1.915913 -5.684540
C -4.491589 -3.245669 2.028747
O -3.851808 -2.571121 0.936415
C -4.597804 -1.601018 0.359569
O -5.686312 -1.201260 0.750920
C -3.958428 -1.206215 -0.963233
C -3.740606 0.129958 -1.118911
C -3.158489 0.692515 -2.367058
C -1.880315 1.273011 -2.281453
C -1.429659 2.130664 -3.290549
C -2.254373 2.389552 -4.379284
F -1.831891 3.229035 -5.334651
C -3.505836 1.793364 -4.500345
C -3.953815 0.933901 -3.497092
H -5.249631 -3.933334 1.643849
H -4.933215 -2.545574 2.741375
H -3.734822 -3.839997 2.553002
H -1.261800 1.146521 -1.397748
H -0.458091 2.606995 -3.210258
H -4.118874 1.996139 -5.372612
H -4.959301 0.521469 -3.566231
C -8.340313 3.527985 1.605010
O -6.968437 3.452916 1.242379
C -6.242050 2.517903 1.910370
O -6.671423 1.707891 2.707743
C -4.760509 2.771135 1.671610
C -4.264295 3.707867 2.540773
C -3.803397 3.314846 3.936406
C -4.254113 2.163667 4.614542
C -3.786035 1.830001 5.890025
C -2.913350 2.688521 6.537270
F -2.441762 2.361788 7.748560
C -2.518901 3.871544 5.947343
C -2.984331 4.185534 4.669922
H -8.948431 3.066916 0.820005
H -8.566036 3.063394 2.565601
H -8.604440 4.585462 1.672562
H -4.955081 1.478553 4.152876
H -4.084420 0.908581 6.375912
H -1.846792 4.537923 6.472939
H -2.691494 5.133417 4.245795
C -4.552220 5.576958 -3.003274
O -4.234089 6.032332 -1.687471
C -3.428981 5.192240 -1.001362
O -2.905691 4.182689 -1.445305
C -3.158341 5.697215 0.388648
C -1.836783 5.947591 0.659502
C -1.338054 6.190417 2.052423
C -1.623037 7.355927 2.775363
C -1.045582 7.585640 4.030057
C -0.166457 6.658376 4.568316
F 0.369846 6.871717 5.780259
C 0.133810 5.487429 3.887056
C -0.458016 5.256959 2.638581
H -5.110376 6.373895 -3.504488
H -3.640568 5.370812 -3.572789
H -5.180911 4.687348 -2.962746
H -2.277157 8.110197 2.364683
H -1.275986 8.495179 4.583117
H 0.803573 4.755606 4.326143
H -0.215886 4.325732 2.135694
C -3.006464 8.197819 -4.708504
O -2.320368 7.775950 -3.528309
C -2.302093 8.700242 -2.543712
O -2.817119 9.811979 -2.603004
C -1.550362 8.200134 -1.349474
C -1.333340 9.073539 -0.400224
C -1.079311 10.086178 0.568612
C -1.968319 11.160548 0.688170
C -1.742035 12.146708 1.648520
C -0.631538 12.050618 2.474510
F -0.421722 12.992293 3.406000
C 0.265927 10.990689 2.361763
C 0.043206 10.008141 1.396993
H -2.588667 9.136941 -5.085728
H -4.072626 8.310694 -4.499462
H -2.875286 7.431600 -5.476102
H -2.830377 11.236706 0.034796
H -2.424501 12.986683 1.753325
H 1.124364 10.942114 3.031483
H 0.740161 9.176870 1.312550
