256
Molecule ID: homopoly_67744
O -1.999405 4.459289 -9.995659
C -1.220097 3.875514 -9.256352
O -0.201577 4.436465 -8.552281
C -0.076716 5.867590 -8.672001
C -0.870911 6.588255 -7.592756
F -2.198349 6.320675 -7.726283
F -0.516960 6.110599 -6.359614
C -0.609565 8.088809 -7.660826
F -1.294672 8.761913 -6.705074
F 0.706490 8.365543 -7.476011
F -0.960394 8.616444 -8.861093
C -1.234919 2.442301 -9.114025
C -1.185591 1.148526 -8.964340
H 0.993919 6.079275 -8.557607
H -0.366979 6.201228 -9.675934
H -1.836112 0.529709 -9.579121
O 3.278667 -0.851179 -5.758231
C 2.702364 -0.143348 -6.572656
O 3.070198 0.029885 -7.867461
C 4.289756 -0.633352 -8.248740
C 5.551767 0.156107 -7.895559
F 6.614743 -0.473243 -8.483413
F 5.783061 0.092209 -6.554747
C 5.484497 1.610093 -8.351132
F 4.486089 2.298002 -7.741460
F 6.636961 2.273601 -8.083260
F 5.272306 1.702747 -9.688330
C 1.521181 0.718974 -6.255868
C 1.425652 1.114659 -4.971351
H 4.331610 -1.644286 -7.818760
H 4.245441 -0.770585 -9.334463
H 2.191200 0.802561 -4.254544
O -2.449378 3.516544 -5.782673
C -2.630691 3.441167 -4.576681
O -3.279212 4.371107 -3.828722
C -3.654909 5.548287 -4.578315
C -4.987117 5.446140 -5.314270
F -5.076161 4.275902 -5.995105
F -5.024412 6.434061 -6.259076
C -6.160248 5.613990 -4.353288
F -6.115233 6.822949 -3.731753
F -6.159560 4.686024 -3.371948
F -7.358250 5.542289 -4.975126
C -1.988548 2.378030 -3.747700
C -2.245266 2.014782 -2.476216
H -3.668264 6.384235 -3.868239
H -2.857094 5.811119 -5.289591
H -1.568081 1.244368 -2.085067
O -2.813529 3.664690 2.451530
C -3.714696 2.962730 2.037729
O -5.028710 3.095518 2.338418
C -5.358886 4.284441 3.084686
C -5.334051 4.154998 4.606204
F -6.310312 5.003116 5.077634
F -5.757295 2.913337 4.972780
C -4.011657 4.530165 5.272645
F -4.144995 4.553281 6.624632
F -2.992770 3.686130 5.011090
F -3.608483 5.772143 4.901964
C -3.539678 1.890341 1.019943
C -3.703997 0.562764 1.192720
H -6.391678 4.509760 2.791782
H -4.779587 5.147577 2.736382
H -3.481737 -0.028854 0.297556
O -5.557351 -3.871491 2.415187
C -4.577108 -3.820662 3.143749
O -4.272311 -4.728101 4.103978
C -5.164364 -5.851762 4.206754
C -4.553976 -6.901953 5.127094
F -4.275741 -6.350814 6.340511
F -3.361592 -7.320916 4.609793
C -5.510370 -8.086286 5.283451
F -6.698654 -7.694109 5.811867
F -5.783646 -8.661811 4.085448
F -5.011351 -9.054458 6.090764
C -3.529446 -2.745463 3.042290
C -2.323913 -2.925451 3.630683
H -5.317621 -6.284798 3.212661
H -6.116615 -5.496652 4.613967
H -2.142354 -3.775960 4.288686
O -1.929449 -4.816127 1.061629
C -1.367408 -3.770541 0.797582
O -1.661362 -2.927496 -0.225451
C -2.601199 -3.412547 -1.209239
C -2.393255 -2.604164 -2.482934
F -1.096582 -2.739105 -2.891642
F -2.557945 -1.274646 -2.198631
C -3.347016 -3.044576 -3.584965
F -4.639396 -2.868198 -3.218849
F -3.140042 -2.344453 -4.722631
F -3.184942 -4.360175 -3.877058
C -0.146383 -3.228164 1.459984
C 0.957270 -3.637819 0.792760
H -3.611610 -3.270263 -0.814731
H -2.423349 -4.477044 -1.404990
H 0.852707 -4.403520 0.019387
O 4.439103 -2.570864 -2.045355
C 4.905668 -2.043459 -1.049199
O 6.223103 -1.830563 -0.811067
C 7.122017 -2.205235 -1.870088
C 7.451159 -1.035650 -2.788908
F 6.327261 -0.650233 -3.453237
F 8.328886 -1.463326 -3.740944
C 8.038957 0.143452 -2.019430
F 8.368705 1.171340 -2.838492
F 7.175080 0.640034 -1.095794
F 9.165536 -0.210636 -1.352113
C 4.062625 -1.552918 0.087895
C 4.508333 -0.545841 0.864378
H 8.040259 -2.569491 -1.393891
H 6.726914 -3.051379 -2.447219
H 5.496372 -0.108321 0.704001
O 6.723502 -2.127703 3.670503
C 5.972799 -1.165339 3.699719
O 6.355527 0.140072 3.644242
C 7.763562 0.422112 3.729404
C 8.143552 1.013948 5.083917
F 9.438457 1.436699 5.006647
F 8.125759 0.024816 6.021727
C 7.235927 2.169993 5.498280
F 7.638594 2.735410 6.660184
F 7.226703 3.148027 4.559717
F 5.952939 1.776900 5.676257
C 4.483583 -1.217833 3.865594
C 3.855828 -2.045002 4.727756
H 7.993681 1.132172 2.929182
H 8.373594 -0.469322 3.538115
H 2.765370 -1.955427 4.762035
O -1.561863 -1.575237 -8.334708
C -0.608034 -1.009082 -7.822444
O 0.312881 -1.633075 -7.052889
C 0.180130 -3.063061 -6.929748
C 0.901317 -3.778182 -8.069025
F 0.395614 -3.384352 -9.267828
F 2.210048 -3.391418 -8.077525
C 0.793522 -5.287185 -7.900132
F -0.495062 -5.707668 -7.904014
F 1.438975 -5.959034 -8.881269
F 1.329303 -5.691682 -6.720775
C -0.329719 0.459972 -7.990342
C 0.605295 1.153874 -7.292181
H -0.878273 -3.341555 -6.863878
H 0.648112 -3.325166 -5.974003
H 0.731651 2.220580 -7.488286
O 0.807875 3.384067 -2.487493
C 0.839531 3.212419 -3.698354
O 1.205798 4.116573 -4.632659
C 1.630380 5.398688 -4.124509
C 2.681437 5.995598 -5.050753
F 3.693077 5.098339 -5.215557
F 2.138153 6.192600 -6.285518
C 3.199863 7.303635 -4.468048
F 2.199482 8.202390 -4.305584
F 3.759254 7.114310 -3.246801
F 4.140803 7.878879 -5.254248
C 0.405449 1.968726 -4.389333
C -0.900287 1.640456 -4.396961
H 0.747372 6.048339 -4.082472
H 2.048303 5.294011 -3.118365
H -1.235405 0.742949 -4.912720
O -5.089496 2.027148 -3.040914
C -4.718783 2.265980 -1.905387
O -5.548249 2.517934 -0.862354
C -6.964794 2.580469 -1.131245
C -7.669062 1.275523 -1.502042
F -7.603997 1.068781 -2.842771
F -8.999998 1.441643 -1.225089
C -7.130601 0.070166 -0.736477
F -7.188927 0.262134 0.606147
F -7.830501 -1.055925 -1.012275
F -5.830980 -0.201930 -1.031999
C -3.278656 2.311123 -1.489868
C -2.845862 2.268956 -0.208238
H -7.161214 3.358320 -1.879231
H -7.410851 2.961027 -0.199522
H -1.770923 2.351134 -0.023653
O -3.642824 1.253594 4.137255
C -4.115325 0.199995 3.742709
O -4.924965 -0.617653 4.462799
C -5.257031 -0.129211 5.777090
C -5.805922 -1.222839 6.678479
F -6.433238 -0.630579 7.738112
F -6.784712 -1.906873 6.015139
C -4.723450 -2.170709 7.174106
F -4.095671 -2.810974 6.161693
F -3.780892 -1.517171 7.891881
F -5.244058 -3.132037 7.980941
C -3.924981 -0.319720 2.353562
C -3.782063 -1.645223 2.117405
H -4.395004 0.352730 6.257678
H -6.040594 0.624813 5.650501
H -3.738982 -1.996808 1.088991
O -1.814535 -0.860825 5.454705
C -1.032321 -0.974269 4.520685
O -0.048083 -0.089932 4.221078
C -0.078201 1.134461 4.997213
C 0.718215 1.028012 6.293226
F 0.308401 -0.036767 7.029538
F 2.028043 0.788800 5.990321
C 0.585865 2.325897 7.088793
F 1.030999 3.389782 6.370219
F -0.704170 2.589288 7.417867
F 1.296563 2.299003 8.239072
C -1.147299 -2.074490 3.494416
C -0.208540 -2.227622 2.523497
H -1.115512 1.433324 5.184696
H 0.369791 1.899617 4.359780
H 0.659121 -1.574646 2.538735
O 2.886003 -4.630329 2.769239
C 3.245717 -4.030568 1.765139
O 4.482967 -4.095624 1.221401
C 5.416508 -4.943440 1.922060
C 6.756452 -4.920212 1.204609
F 7.225536 -3.642948 1.146086
F 6.576342 -5.305765 -0.094177
C 7.754646 -5.839682 1.892563
F 7.948919 -5.495990 3.191261
F 7.322928 -7.124736 1.895373
F 8.961788 -5.823251 1.283472
C 2.335916 -3.186403 0.929778
C 2.726878 -2.119019 0.206064
H 5.523372 -4.571239 2.945698
H 5.010949 -5.959803 1.928122
H 2.003374 -1.640635 -0.451644
O 1.727594 1.479346 1.970249
C 2.815312 1.246651 1.469728
O 3.404921 1.967466 0.478571
C 2.666645 3.132910 0.041462
C 2.966988 4.357236 0.901344
F 4.293782 4.660610 0.780518
F 2.766804 4.070857 2.217641
C 2.108786 5.542114 0.465919
F 2.358161 6.652917 1.199308
F 2.333988 5.864341 -0.835119
F 0.784736 5.273200 0.576186
C 3.715387 0.127255 1.878062
C 3.661370 -0.219972 3.179440
H 2.997532 3.321516 -0.983562
H 1.595882 2.909084 0.014614
H 2.970702 0.308841 3.833987
O 2.091728 -3.560495 6.425940
C 3.295180 -3.773198 6.504036
O 3.871180 -4.656512 7.362130
C 2.966015 -5.295799 8.289374
C 2.822224 -4.474482 9.567942
F 2.476761 -3.193697 9.264604
F 4.044033 -4.394412 10.174518
C 1.801729 -5.119827 10.494158
F 2.142057 -6.399671 10.791215
F 1.682544 -4.453109 11.667121
F 0.570541 -5.164886 9.930263
C 4.321273 -3.061598 5.667972
C 5.582949 -3.341664 5.830010
H 1.994289 -5.479387 7.811576
H 3.407329 -6.275342 8.513715
H 6.627534 -3.560807 5.891137
