336
Molecule ID: homopoly_5369162
C 8.167005 -2.985946 1.072104
C 7.268077 -4.159658 1.407094
O 6.077815 -4.110110 0.608374
C 6.170392 -4.681615 -0.618369
O 7.173935 -5.186964 -1.105077
C 4.955185 -4.566639 -1.369207
C 3.903848 -4.468572 -2.130874
N 4.083475 -3.748871 -3.326441
C 4.380001 -4.504603 -4.555855
C 4.726641 -2.428094 -3.296402
H 9.064637 -2.989279 1.696395
H 8.475114 -3.001133 0.019704
H 7.632478 -2.039572 1.229266
H 7.786162 -5.116285 1.290452
H 6.957360 -4.093376 2.453147
H 5.448707 -4.750275 -4.604874
H 4.120876 -3.908505 -5.438626
H 3.809115 -5.438832 -4.607908
H 4.487752 -1.871382 -4.210100
H 5.816791 -2.518979 -3.221809
H 4.356372 -1.840723 -2.451751
C 1.857721 -8.668334 -5.173051
C 2.474028 -9.116949 -3.862449
O 2.301438 -8.095294 -2.874071
C 1.209412 -8.207554 -2.054757
O 0.434512 -9.152023 -2.094694
C 1.197155 -7.059459 -1.044011
C 0.095099 -6.900108 -0.238194
N -1.144348 -7.529178 -0.530304
C -1.896298 -7.111244 -1.718524
C -1.949777 -8.240669 0.458578
H 0.781668 -8.482931 -5.059003
H 2.005117 -9.423154 -5.950550
H 2.302329 -7.725029 -5.507940
H 2.063475 -10.080522 -3.539375
H 3.554836 -9.256008 -3.992677
H -2.661449 -6.380312 -1.443279
H -2.391493 -7.969537 -2.182371
H -1.255465 -6.655103 -2.479341
H -2.325111 -7.570481 1.231531
H -1.374343 -9.049636 0.914952
H -2.821328 -8.713867 -0.009409
C 3.860983 -6.375528 5.329906
C 3.184119 -5.142320 4.761916
O 2.008528 -5.559990 4.060528
C 1.122757 -4.558685 3.815698
O 1.321672 -3.382684 4.082184
C -0.168123 -5.102287 3.250131
C -1.342266 -4.599663 3.772357
N -2.637829 -4.895540 3.287039
C -3.018643 -4.555862 1.914950
C -3.438041 -5.990867 3.839972
H 4.094529 -7.090962 4.533780
H 3.193240 -6.882421 6.034742
H 4.783714 -6.106110 5.853896
H 3.856247 -4.639138 4.060591
H 2.935537 -4.460998 5.582455
H -2.576586 -3.602436 1.629069
H -2.718052 -5.333424 1.212937
H -4.105743 -4.441245 1.826095
H -3.083761 -6.955239 3.468517
H -3.421547 -5.990737 4.930251
H -4.489760 -5.893816 3.540446
C -6.783435 -2.923988 5.985323
C -5.851094 -3.267137 4.837256
O -4.540252 -2.801523 5.177125
C -3.825373 -2.248704 4.154777
O -4.211195 -2.129419 2.999383
C -2.539226 -1.703119 4.692513
C -2.409028 -0.333133 4.626273
N -3.482595 0.538028 4.280640
C -3.554191 1.092205 2.932838
C -4.796662 0.446678 4.920395
H -7.796382 -3.281129 5.784013
H -6.818491 -1.841117 6.141846
H -6.429244 -3.371919 6.920751
H -5.809728 -4.352332 4.714212
H -6.235733 -2.819221 3.912262
H -4.305392 1.886387 2.868736
H -2.600410 1.527062 2.646432
H -3.833096 0.321033 2.213956
H -4.736004 0.008528 5.919878
H -5.500196 -0.133398 4.315751
H -5.228158 1.444199 5.033530
C -4.842856 3.817303 6.951718
C -4.492990 4.234215 5.529863
O -3.459220 3.414487 4.971337
C -2.198207 3.727002 5.373293
O -1.930213 4.596177 6.196928
C -1.158558 2.849806 4.707129
C -0.468887 3.517101 3.712248
N -0.979420 4.712745 3.116128
C -0.560244 6.019562 3.660895
C -2.320366 4.760652 2.544133
H -4.040496 4.085379 7.646132
H -4.978746 2.736391 7.024912
H -5.758999 4.314291 7.284671
H -5.371250 4.105156 4.891136
H -4.222058 5.297277 5.485024
H -0.955670 6.183802 4.664318
H 0.523291 6.117060 3.700908
H -0.943527 6.842621 3.047310
H -2.975501 5.445517 3.098053
H -2.249377 5.136042 1.526548
H -2.800059 3.780268 2.491321
C 3.805746 -0.781493 1.034983
C 2.355494 -0.514268 0.662512
O 1.855610 0.744873 1.146070
C 2.316032 1.849680 0.515986
O 3.256074 1.858717 -0.271474
C 1.516873 3.065492 0.926001
C 0.967892 3.718047 -0.167675
N 1.153180 3.298051 -1.534579
C 2.095324 4.068479 -2.367082
C 0.960330 1.940040 -2.047095
H 3.993347 -0.596917 2.093468
H 4.072596 -1.821147 0.803218
H 4.493263 -0.133553 0.481061
H 1.723877 -1.286068 1.111472
H 2.209270 -0.580919 -0.423293
H 1.624940 4.992568 -2.722345
H 2.415450 3.498756 -3.247598
H 3.005624 4.313540 -1.804519
H 0.334688 1.974604 -2.947270
H 0.477613 1.281894 -1.330500
H 1.907506 1.467052 -2.341208
C -1.408457 0.514543 0.473740
C -2.381825 1.195956 -0.460972
O -1.744590 2.326763 -1.064361
C -2.317510 3.530989 -0.834114
O -3.288768 3.722262 -0.108259
C -1.674096 4.631031 -1.620287
C -2.305594 4.816604 -2.836193
N -3.103745 3.828653 -3.487062
C -4.569352 3.860882 -3.398753
C -2.537749 2.554186 -3.936843
H -1.904944 -0.263552 1.057927
H -0.950253 1.242927 1.150508
H -0.598694 0.035079 -0.081827
H -2.662596 0.510823 -1.262481
H -3.298211 1.455482 0.072890
H -5.012193 3.055961 -3.992261
H -4.891265 3.735127 -2.360914
H -4.968330 4.799522 -3.789691
H -3.000810 2.232557 -4.870439
H -1.464250 2.635700 -4.116782
H -2.735524 1.764338 -3.214705
C -4.438299 1.913958 -8.044858
C -4.642022 3.247860 -7.357853
O -3.378320 3.685751 -6.843666
C -3.382097 4.963746 -6.373481
O -4.385091 5.665408 -6.312455
C -2.010459 5.385227 -5.908941
C -0.894650 5.049862 -6.618566
N 0.419753 5.416185 -6.218236
C 1.108673 6.468223 -6.974343
C 1.319818 4.357120 -5.758114
H -4.089441 1.161750 -7.328496
H -5.373721 1.565260 -8.494144
H -3.673686 1.990953 -8.825775
H -5.356737 3.141445 -6.533836
H -5.024114 3.975495 -8.083047
H 0.426778 7.291667 -7.213692
H 1.519722 6.071825 -7.910974
H 1.928679 6.885410 -6.377029
H 2.221057 4.788640 -5.308588
H 0.826194 3.733230 -5.008420
H 1.635557 3.722193 -6.590960
C 0.479195 -1.503208 -3.767949
C 0.526510 -3.013854 -3.884883
O 1.251251 -3.533567 -2.761135
C 1.536251 -4.862833 -2.857970
O 1.015926 -5.632932 -3.652297
C 2.645608 -5.213618 -1.902645
C 2.445444 -6.227171 -1.001057
N 3.430354 -6.635985 -0.062801
C 3.910947 -8.018846 -0.024882
C 3.521259 -5.945483 1.224909
H -0.050896 -1.067455 -4.619329
H 1.494709 -1.089928 -3.732430
H -0.024852 -1.187478 -2.851070
H -0.487404 -3.424400 -3.891691
H 1.038597 -3.278259 -4.813150
H 4.803515 -8.100805 0.606317
H 4.197432 -8.356772 -1.025018
H 3.151028 -8.694523 0.375658
H 4.547925 -5.973831 1.602954
H 2.893175 -6.451032 1.955857
H 3.219792 -4.895261 1.150067
C -2.354537 -2.719472 -1.432218
C -1.116446 -2.848064 -0.559976
O -0.914069 -4.236447 -0.319151
C 0.133471 -4.498716 0.505634
O 0.959238 -3.693686 0.900631
C 0.088888 -5.936790 0.904925
C -0.031977 -6.218565 2.242620
N -0.009391 -7.549367 2.821417
C -0.308732 -7.792306 4.244549
C 0.928007 -8.574197 2.329921
H -2.261782 -3.331044 -2.335287
H -2.531616 -1.684537 -1.725302
H -3.237693 -3.086615 -0.895324
H -0.244309 -2.416012 -1.053617
H -1.283065 -2.329725 0.387614
H -1.153515 -7.204848 4.603050
H 0.561812 -7.585350 4.876210
H -0.595792 -8.839972 4.401196
H 1.945433 -8.336559 2.648306
H 0.913697 -8.700439 1.251380
H 0.676439 -9.561137 2.738107
C -2.702689 -6.028164 9.010846
C -1.704523 -6.249737 7.890957
O -1.960727 -5.288141 6.863316
C -0.864490 -4.800536 6.217130
O 0.293052 -5.110323 6.463436
C -1.308209 -3.895813 5.098966
C -1.710054 -2.648066 5.503042
N -1.517831 -2.184525 6.841169
C -2.643670 -2.180896 7.777205
C -0.191046 -2.166803 7.461942
H -3.728124 -6.038624 8.627823
H -2.599770 -6.795502 9.780992
H -2.539963 -5.047480 9.472870
H -0.688433 -6.178849 8.294079
H -1.846217 -7.248413 7.460005
H -2.996058 -3.195206 7.962476
H -2.354117 -1.750362 8.743498
H -3.480602 -1.592850 7.394382
H -0.056976 -1.242924 8.033448
H -0.082231 -3.005173 8.156796
H 0.605636 -2.218949 6.716224
C 3.325436 -1.134576 5.386346
C 2.389980 -0.538820 4.353563
O 1.174529 -0.137092 4.989970
C 0.077386 -0.120603 4.179156
O 0.028868 -0.467142 3.009316
C -1.103495 0.351980 4.946216
C -0.885209 1.591681 5.494628
N -1.007132 1.775417 6.902067
C -2.063195 1.192383 7.716449
C -0.023169 2.548782 7.656637
H 2.863932 -1.990431 5.890616
H 3.570280 -0.409290 6.164912
H 4.254597 -1.464097 4.917498
H 2.215457 -1.263963 3.556126
H 2.853182 0.347924 3.907835
H -2.591646 1.981276 8.259290
H -1.640542 0.504038 8.452244
H -2.816056 0.671362 7.127851
H 0.848383 1.921172 7.863988
H 0.296801 3.441918 7.118691
H -0.428861 2.885865 8.618832
C 4.679602 2.905816 6.030006
C 3.222066 2.650056 6.349314
O 2.459415 2.546730 5.142489
C 1.779198 3.660177 4.769261
O 1.791080 4.726345 5.367470
C 1.011211 3.400590 3.493442
C 1.809800 3.467470 2.361564
N 3.175546 3.903482 2.511665
C 4.344001 3.054924 2.288188
C 3.512576 5.274004 2.906338
H 5.064979 2.156001 5.332192
H 5.283123 2.887264 6.940708
H 4.805465 3.883302 5.559137
H 2.831550 3.417594 7.022611
H 3.123547 1.695944 6.873905
H 4.119122 1.998239 2.449082
H 5.152292 3.314552 2.985788
H 4.736100 3.205888 1.276471
H 2.635869 5.925015 2.944608
H 4.231585 5.697812 2.199885
H 3.976504 5.286451 3.896144
C 4.455505 7.289693 -0.808838
C 3.185316 7.410409 0.005289
O 2.373881 6.263635 -0.279184
C 1.231484 6.162424 0.468510
O 0.926844 6.926197 1.373346
C 0.360031 5.088746 -0.128646
C -0.740483 5.542687 -0.841110
N -1.117036 6.917405 -0.882774
C -2.082661 7.423904 0.100688
C -0.202267 7.960646 -1.363965
H 4.980440 6.354278 -0.580359
H 5.126156 8.128798 -0.610587
H 4.222750 7.270084 -1.879422
H 2.649573 8.317113 -0.285633
H 3.426379 7.461033 1.069337
H -1.624930 7.501252 1.084107
H -2.441208 8.419408 -0.178253
H -2.955447 6.772146 0.163633
H 0.301072 8.464026 -0.534533
H -0.752094 8.735890 -1.902153
H 0.544168 7.549620 -2.050644
C -6.388018 6.741344 -1.323176
C -5.216494 7.568606 -1.810667
O -4.224594 6.659665 -2.292423
C -3.131848 7.240224 -2.876386
O -2.961569 8.452527 -2.903842
C -2.298387 6.147868 -3.534620
C -2.017207 6.426334 -4.846416
N -1.824093 7.728716 -5.386364
C -0.795679 8.628212 -4.873452
C -2.794548 8.335717 -6.293979
H -6.773829 6.105400 -2.127682
H -6.082790 6.073440 -0.509382
H -7.197920 7.382013 -0.968576
H -4.810423 8.161779 -0.984948
H -5.543941 8.228138 -2.621406
H -0.023574 8.075902 -4.330203
H -1.218364 9.394329 -4.222793
H -0.299367 9.139936 -5.702153
H -3.757495 8.472849 -5.791198
H -2.941949 7.725699 -7.188740
H -2.456026 9.317437 -6.638501
C 2.476921 2.667220 -10.242742
C 1.112532 2.142109 -9.838642
O 0.315763 3.270188 -9.462666
C -0.382928 3.169225 -8.296499
O -0.460388 2.160614 -7.602247
C -1.010684 4.475659 -7.976330
C -1.462562 5.227163 -8.949651
N -1.988794 6.120623 -10.003841
C -2.704636 5.434992 -11.069069
C -1.043349 7.138134 -10.440528
H 2.383810 3.332066 -11.106868
H 2.922535 3.256970 -9.434194
H 3.149184 1.846362 -10.505963
H 1.223628 1.405989 -9.036572
H 0.631891 1.654903 -10.691773
H -3.471894 4.769207 -10.657928
H -2.024634 4.844096 -11.695296
H -3.216392 6.163022 -11.710041
H -0.631840 7.678369 -9.576380
H -1.539376 7.872099 -11.084664
H -0.210292 6.688039 -10.995771
