400
Molecule ID: homopoly_1268038
C -10.031755 -4.757434 2.251404
C -9.794873 -6.130584 2.831965
O -8.443010 -6.583732 2.617447
C -8.011796 -6.563755 1.308776
O -8.709608 -6.109641 0.418480
C -6.669487 -7.119728 1.009485
C -6.239703 -7.486651 -0.149571
C -7.287888 -7.316960 -1.228251
C -7.162529 -6.300426 -2.177186
C -8.117676 -6.095937 -3.140925
C -9.222747 -6.895804 -3.203717
N -10.215440 -6.619151 -4.269834
O -11.193785 -7.395921 -4.324324
O -10.020678 -5.654734 -5.054326
C -9.361794 -7.908683 -2.270498
C -8.419094 -8.138995 -1.274581
H -10.472451 -4.814053 1.236228
H -10.704751 -4.164126 2.919365
H -9.081798 -4.216164 2.234442
H -9.989450 -6.086932 3.916548
H -10.506331 -6.819419 2.349846
H -6.312618 -5.636502 -2.210721
H -8.014285 -5.296809 -3.875497
H -10.228199 -8.536808 -2.323220
H -8.542424 -8.941365 -0.541900
C -4.348744 -2.877558 -0.325101
C -5.492637 -3.843285 -0.056306
O -4.915712 -5.170898 -0.076265
C -4.007750 -5.401860 0.933505
O -3.785663 -4.557760 1.750558
C -3.375792 -6.745709 1.004027
C -2.377297 -6.839852 1.935512
C -1.707205 -8.111700 2.105085
C -0.325856 -8.137957 2.104164
C 0.361580 -9.318376 2.251814
C -0.367028 -10.476086 2.383873
N 0.380025 -11.744300 2.527434
O -0.301368 -12.794873 2.640507
O 1.653970 -11.726636 2.523428
C -1.741332 -10.507448 2.378580
C -2.413332 -9.305332 2.247403
H -3.473203 -3.424410 -0.741604
H -4.049254 -2.325706 0.587039
H -4.650620 -2.164317 -1.100896
H -6.278166 -3.749799 -0.823548
H -5.955877 -3.704456 0.930816
H 0.222868 -7.225612 1.997169
H 1.434880 -9.360889 2.261364
H -2.306885 -11.419053 2.489126
H -3.498341 -9.334350 2.244986
C 3.580324 -2.937670 5.348853
C 2.723947 -4.087019 4.861024
O 1.325808 -3.712274 5.035158
C 0.399015 -4.545426 4.481998
O 0.809775 -5.531598 3.864641
C -1.051993 -4.380647 4.624245
C -1.897845 -3.260056 4.816416
C -3.286235 -3.793081 4.916427
C -4.290786 -3.301708 4.030002
C -5.597886 -3.612549 4.278146
C -5.939986 -4.388127 5.337089
N -7.394932 -4.659748 5.589188
O -7.623576 -5.441544 6.552111
O -8.291862 -4.142629 4.871800
C -4.982742 -4.887538 6.196584
C -3.672289 -4.596057 5.986664
H 3.090150 -1.954154 5.285615
H 4.551700 -2.917914 4.803501
H 3.839699 -3.081146 6.417038
H 2.980224 -4.987236 5.454295
H 2.935380 -4.227946 3.787141
H -4.059674 -2.644529 3.222870
H -6.361555 -3.241625 3.605696
H -5.287906 -5.499182 7.028209
H -2.909643 -4.944329 6.689945
C -6.585750 0.373888 5.623287
C -6.336667 0.162090 4.151300
O -4.996562 0.577049 3.807311
C -3.937727 -0.003576 4.410173
O -4.194294 -0.870775 5.218028
C -2.508091 0.374844 4.101781
C -2.173617 1.340473 3.140593
C -3.204179 1.836898 2.220108
C -4.122558 0.980246 1.630978
C -5.127298 1.430774 0.809167
C -5.183992 2.787100 0.485555
N -6.272459 3.323945 -0.363980
O -7.102304 2.469740 -0.757140
O -6.347166 4.552480 -0.667131
C -4.244010 3.642773 0.992644
C -3.268746 3.172863 1.826669
H -5.678137 0.507587 6.221677
H -7.194261 1.287420 5.715000
H -7.099041 -0.511240 6.057581
H -6.444083 -0.887844 3.910215
H -7.108119 0.687654 3.542334
H -4.056428 -0.104713 1.855180
H -5.855426 0.731947 0.434456
H -4.272754 4.681801 0.727925
H -2.506064 3.875036 2.136929
C -1.322984 6.422067 8.056435
C 0.035702 6.479632 7.402274
O -0.149702 6.195600 6.020296
C -0.546142 4.951877 5.608907
O -0.736027 4.078368 6.403433
C -0.745448 4.645813 4.178100
C -0.335653 5.564798 3.223317
C 0.165779 6.791915 3.861312
C 1.484715 6.900857 4.252856
C 1.982982 8.050657 4.844557
C 1.173178 9.136165 5.074364
N 1.709040 10.355698 5.691570
O 0.899908 11.313277 5.783109
O 2.907125 10.385467 6.046431
C -0.129323 9.087249 4.677971
C -0.619777 7.910728 4.121454
H -1.481461 7.364417 8.611012
H -1.384195 5.585333 8.785836
H -2.122533 6.319081 7.272247
H 0.747322 5.801728 7.887410
H 0.401271 7.499161 7.450203
H 2.137650 6.074183 4.130197
H 2.997056 8.079296 5.194086
H -0.845550 9.907782 4.826691
H -1.657814 7.898792 3.915535
C 4.776651 8.014470 1.942738
C 4.575183 6.724372 2.710731
O 3.678506 5.726793 2.131372
C 2.663350 6.032233 1.288307
O 2.358355 7.175073 0.971425
C 1.758807 5.039457 0.650409
C 2.451282 4.054042 -0.038092
C 3.871839 4.058555 0.445436
C 4.846811 4.914272 -0.037930
C 6.148867 4.896911 0.464239
C 6.472862 4.034427 1.525314
N 7.845263 4.017773 2.132364
O 8.684611 4.785582 1.627021
O 8.085269 3.211699 3.085790
C 5.518406 3.163173 1.978557
C 4.233289 3.168322 1.442391
H 5.075454 7.879567 0.901271
H 3.890206 8.679554 1.901120
H 5.606475 8.585513 2.424703
H 5.578122 6.277008 2.757065
H 4.273502 6.979267 3.708061
H 4.606170 5.566295 -0.866146
H 6.900269 5.543589 0.023708
H 5.780017 2.552366 2.845943
H 3.486799 2.487616 1.809672
C -0.337279 -1.483981 -4.120176
C 0.161585 -1.027679 -2.761058
O 0.607581 0.340445 -2.674332
C 1.650683 0.771720 -3.486666
O 2.214224 -0.099505 -4.139008
C 1.957414 2.241735 -3.383720
C 2.835794 2.871464 -4.289270
C 2.982327 4.305824 -4.377866
C 2.955063 4.723400 -5.697043
C 3.132569 6.036170 -6.110401
C 3.254246 7.021851 -5.137069
N 3.436740 8.413412 -5.616829
O 3.593699 9.249275 -4.710967
O 3.393552 8.687720 -6.849223
C 3.302126 6.628464 -3.857982
C 3.130839 5.312076 -3.481011
H -1.436167 -1.270681 -4.252976
H -0.208027 -2.598481 -4.124714
H 0.292638 -1.070402 -4.899489
H 0.879495 -1.748533 -2.336747
H -0.780835 -1.086393 -2.111816
H 2.856716 3.976353 -6.476079
H 3.101467 6.320373 -7.121292
H 3.392200 7.344454 -3.058247
H 3.170174 5.084396 -2.438977
C 3.706729 -2.367948 -7.791392
C 3.613848 -1.940341 -6.348801
O 3.954766 -0.546429 -6.210716
C 5.241429 -0.167955 -6.112925
O 6.048425 -1.104557 -6.174934
C 5.678698 1.262440 -6.061715
C 7.031337 1.348613 -6.522626
C 7.562640 0.187380 -7.198144
C 8.364607 -0.626298 -6.357793
C 9.010021 -1.746026 -6.846601
C 8.918851 -2.017124 -8.204661
N 9.601330 -3.216112 -8.771617
O 10.189317 -3.909123 -7.925988
O 9.532203 -3.496079 -9.987926
C 8.139960 -1.219498 -9.041550
C 7.447397 -0.108231 -8.545573
H 3.934726 -1.519185 -8.448311
H 4.548810 -3.070316 -7.916146
H 2.795702 -2.938993 -8.127149
H 2.559476 -2.051562 -6.006892
H 4.210666 -2.636836 -5.722604
H 8.411262 -0.392389 -5.291771
H 9.589975 -2.382578 -6.204561
H 8.127239 -1.369231 -10.109629
H 6.890350 0.579886 -9.168881
C -7.250704 -9.425353 -4.601850
C -5.905250 -9.010244 -4.020132
O -5.998397 -8.685377 -2.630575
C -4.842611 -8.340965 -1.977241
O -3.793973 -8.343456 -2.609606
C -4.949264 -7.916426 -0.523030
C -3.685455 -7.749825 0.038406
C -2.650233 -8.501377 -0.621674
C -2.814516 -9.864940 -0.830564
C -1.823240 -10.610411 -1.463932
C -0.669400 -10.017011 -1.884676
N 0.382673 -10.810993 -2.542668
O 0.119191 -12.040747 -2.628175
O 1.409355 -10.264044 -2.974120
C -0.519886 -8.657431 -1.717945
C -1.504580 -7.898492 -1.093888
H -7.776618 -8.591196 -5.093517
H -7.940902 -9.871419 -3.881233
H -7.122413 -10.184339 -5.400375
H -5.546615 -8.134859 -4.600706
H -5.201633 -9.836958 -4.157825
H -3.693836 -10.398482 -0.493956
H -1.954206 -11.682446 -1.587094
H 0.379077 -8.182142 -2.052574
H -1.305192 -6.853600 -1.011962
C 0.907093 -4.332733 -0.457394
C -0.588573 -4.126687 -0.551269
O -1.196428 -4.945188 0.441815
C -1.171249 -4.696112 1.773070
O -0.631406 -3.705720 2.223769
C -1.833145 -5.703895 2.669338
C -1.728929 -5.614567 4.045662
C -2.174918 -6.737548 4.862041
C -1.443098 -7.219486 5.929959
C -1.893890 -8.275785 6.702185
C -3.084158 -8.914598 6.418671
N -3.568698 -10.067903 7.238876
O -2.794076 -10.370850 8.164660
O -4.636285 -10.672860 6.991601
C -3.832323 -8.460751 5.350880
C -3.369051 -7.387914 4.590403
H 1.160560 -4.310804 0.603212
H 1.153870 -5.339987 -0.825559
H 1.415825 -3.594357 -1.081959
H -0.958304 -4.516199 -1.550938
H -0.853599 -3.065277 -0.547600
H -0.514078 -6.754627 6.221209
H -1.315288 -8.649154 7.547752
H -4.762098 -8.967384 5.146840
H -3.994392 -7.031260 3.766715
C -1.629656 1.241951 8.895727
C -2.182584 -0.057767 8.390581
O -1.907944 -0.307076 6.969627
C -2.255298 -1.530092 6.482034
O -2.757569 -2.356843 7.231575
C -1.951015 -1.860292 5.045497
C -1.547156 -0.776690 4.254566
C -0.572449 -0.938903 3.207355
C 0.730866 -1.145908 3.605816
C 1.798396 -1.268210 2.731994
C 1.565391 -1.166096 1.382300
N 2.754923 -1.301866 0.499091
O 2.650896 -1.208147 -0.740839
O 3.875411 -1.510612 1.065010
C 0.281941 -0.946867 0.977825
C -0.802916 -0.826307 1.836490
H -0.738756 1.053332 9.524642
H -2.356154 1.723146 9.560942
H -1.416336 1.943031 8.106320
H -3.285545 0.018155 8.439324
H -1.894919 -0.920300 9.020428
H 0.922506 -1.200631 4.670276
H 2.805330 -1.431170 3.072143
H 0.099812 -0.881691 -0.076396
H -1.816208 -0.663950 1.464529
C 2.900795 3.820235 5.523360
C 2.372640 3.217007 4.220183
O 0.949569 3.044341 4.201058
C 0.320947 2.331906 3.210351
O 0.964470 1.781124 2.365565
C -1.167483 2.366358 3.418824
C -1.573810 3.460747 4.106085
C -2.883794 3.597638 4.795558
C -3.214703 2.814453 5.884374
C -4.365824 2.983104 6.616056
C -5.248354 3.994177 6.306954
N -6.470817 4.136833 7.119348
O -7.227184 5.090420 6.811527
O -6.673217 3.349753 8.086744
C -4.951697 4.805643 5.247691
C -3.778045 4.615010 4.524794
H 2.156226 4.322824 6.128703
H 3.302310 2.971152 6.127955
H 3.771942 4.466142 5.288513
H 2.908728 2.310631 4.011043
H 2.694873 3.953515 3.448800
H -2.563622 2.015530 6.195964
H -4.599997 2.327820 7.447527
H -5.636454 5.605461 4.983823
H -3.598679 5.279843 3.699806
C -2.069625 9.502201 -0.885193
C -2.355467 8.580829 0.269571
O -1.303846 7.616131 0.403072
C -1.420577 6.773004 1.473619
O -2.384436 6.881182 2.204736
C -0.386137 5.685897 1.821005
C 0.393606 5.442150 0.703814
C -0.148686 5.857445 -0.558641
C -1.468498 5.608720 -0.939702
C -1.977788 6.059532 -2.144032
C -1.170776 6.748992 -3.014128
N -1.653493 7.195623 -4.364869
O -2.839872 6.932463 -4.620008
O -0.877330 7.813471 -5.120432
C 0.116922 7.027170 -2.667143
C 0.612255 6.595944 -1.449536
H -2.076729 10.549736 -0.491053
H -2.909173 9.436022 -1.625050
H -1.096458 9.276943 -1.343365
H -3.310690 8.038972 0.123130
H -2.397496 9.096185 1.248144
H -2.084889 5.069246 -0.265453
H -2.982103 5.815382 -2.420393
H 0.706914 7.600626 -3.333114
H 1.639014 6.841793 -1.240980
C 6.948934 1.518399 -0.500269
C 5.589634 1.302518 -1.080197
O 4.689200 2.434526 -0.861915
C 3.479474 2.308637 -1.437298
O 3.265062 1.168737 -1.897015
C 2.318469 3.247036 -1.177233
C 1.378768 2.860335 -2.139499
C -0.002887 3.068959 -2.334329
C -0.451081 3.464954 -3.601171
C -1.802946 3.418396 -3.953883
C -2.689360 2.871131 -3.067384
N -4.091613 2.738905 -3.541409
O -4.845324 2.100248 -2.757571
O -4.434893 3.206445 -4.642784
C -2.235604 2.419867 -1.847987
C -0.907268 2.496798 -1.476656
H 7.705763 0.825769 -0.927847
H 7.066904 1.380742 0.571385
H 7.378608 2.475016 -0.740343
H 5.641508 1.031965 -2.156654
H 5.155829 0.508671 -0.464010
H 0.227261 3.934831 -4.302385
H -2.152330 3.751922 -4.885709
H -2.918288 1.996337 -1.131233
H -0.638862 2.138279 -0.497202
C -0.459290 0.370616 -7.329714
C 0.991965 0.740145 -7.587979
O 1.556272 1.236261 -6.344095
C 2.892539 1.577651 -6.432008
O 3.472812 1.551532 -7.487136
C 3.578607 2.083214 -5.198487
C 4.955257 2.323770 -5.507376
C 5.595789 3.535519 -5.032645
C 5.838259 3.901836 -3.720159
C 6.415844 5.110923 -3.353894
C 6.806706 5.993535 -4.315005
N 7.437880 7.312901 -4.008422
O 7.612870 7.555960 -2.801793
O 7.747679 8.070170 -4.989159
C 6.648405 5.654012 -5.642520
C 6.054529 4.431524 -5.960388
H -1.131744 0.880650 -8.048178
H -0.558481 -0.728128 -7.514896
H -0.833627 0.626800 -6.325471
H 1.583715 -0.143533 -7.928643
H 1.005022 1.537301 -8.332079
H 5.522802 3.244369 -2.954708
H 6.548669 5.360980 -2.327365
H 6.960686 6.339967 -6.381325
H 5.920154 4.181778 -7.000727
C 12.793302 3.572020 -6.310687
C 11.730908 2.856571 -7.124345
O 10.483584 2.947915 -6.431902
C 9.443625 2.161645 -6.863630
O 9.559668 1.514967 -7.896619
C 8.125140 2.213266 -6.050174
C 8.277516 2.694987 -4.895696
C 9.155191 3.464317 -4.091106
C 9.496624 2.937804 -2.855583
C 10.387857 3.576920 -2.007558
C 10.952232 4.751633 -2.416946
N 11.923850 5.440650 -1.519829
O 12.091178 4.884609 -0.414860
O 12.479264 6.493075 -1.888357
C 10.644579 5.287055 -3.672848
C 9.747144 4.645259 -4.507715
H 12.677081 3.274709 -5.276295
H 12.587205 4.655611 -6.321693
H 13.810334 3.366886 -6.668810
H 11.632374 3.297645 -8.119099
H 12.048236 1.802052 -7.280544
H 9.048429 2.014609 -2.515989
H 10.616393 3.166362 -1.023359
H 11.110008 6.205619 -4.004903
H 9.521912 5.100301 -5.475037
