608
Molecule ID: homopoly_168390
C -0.798314 1.648294 1.012623
C -0.855284 0.310025 0.933407
C 0.203682 -0.591693 1.400008
O 0.145325 -1.811329 1.334272
O 1.269179 0.034520 1.915505
C -0.744453 1.587794 2.242018
C -1.022366 1.084035 1.031286
C -0.063185 0.509760 0.073347
C 1.312558 0.412545 0.318904
C 2.175365 -0.144845 -0.633263
C 1.676589 -0.613230 -1.844343
C 0.311564 -0.525189 -2.106546
C -0.549678 0.031561 -1.155333
C 0.481021 5.203480 -6.684705
C 0.606425 3.804747 -7.278650
O -0.136039 2.870030 -6.494451
C 0.570577 2.046829 -5.680297
O 1.781474 2.086887 -5.500125
C -0.261770 1.079010 -4.996934
C -1.006115 0.230682 -4.342099
H 0.052358 2.168123 1.437804
H -1.617761 2.258461 0.646309
H -1.722177 -0.180776 0.501205
H 1.871046 -0.692303 2.172960
H 0.253888 1.626774 2.658801
H -1.544528 1.985204 2.859765
H -2.062601 1.094228 0.709467
H 1.740226 0.766625 1.251781
H 3.239031 -0.210272 -0.421764
H 2.348824 -1.044876 -2.580290
H -0.082952 -0.889565 -3.050785
H -1.610191 0.086281 -1.389495
H 0.885489 5.220738 -5.673020
H -0.568118 5.495730 -6.632390
H 1.025611 5.935408 -7.277039
H 0.182339 3.795220 -8.290385
H 1.669154 3.530161 -7.361429
H -1.170884 0.422034 -3.279463
C -0.801760 1.647575 1.020898
C -0.854069 0.310946 0.931051
C 0.206746 -0.590420 1.393241
O 0.151313 -1.812745 1.318135
O 1.268074 0.034460 1.916207
C -0.744448 1.587785 2.242000
C -1.022429 1.084070 1.031342
C -0.063117 0.509651 0.073126
C 1.312525 0.412659 0.319147
C 2.175334 -0.144969 -0.633550
C 1.676637 -0.613096 -1.844030
C 0.311549 -0.525356 -2.106924
C -0.549757 0.031704 -1.155040
C -5.914989 1.473577 -0.231278
C -5.187887 1.520671 -1.565563
O -4.564058 0.247286 -1.780921
C -4.044739 0.075875 -3.027713
O -4.029619 0.934346 -3.897918
C -3.484060 -1.312429 -3.214429
C -3.843514 -2.374986 -2.457028
H 0.046843 2.167425 1.452673
H -1.621826 2.259433 0.658255
H -1.718988 -0.179289 0.492951
H 1.871722 -0.694063 2.170681
H 0.253875 1.626775 2.658800
H -1.544536 1.985207 2.859770
H -2.062580 1.094227 0.709472
H 1.740202 0.766601 1.251717
H 3.239058 -0.210267 -0.421742
H 2.348854 -1.044913 -2.580361
H -0.082910 -0.889514 -3.050658
H -1.610170 0.086269 -1.389516
H -6.240865 2.478026 0.066985
H -5.287045 1.038829 0.556928
H -6.809400 0.838232 -0.303273
H -4.415640 2.307285 -1.531848
H -5.911867 1.742159 -2.368496
H -3.426418 -3.344688 -2.729691
C -0.799775 1.646995 1.017218
C -0.855311 0.311912 0.931735
C 0.206027 -0.594156 1.395911
O 0.147680 -1.809864 1.326501
O 1.269034 0.034992 1.914270
C -0.744456 1.587725 2.241866
C -1.022462 1.084129 1.031460
C -0.062780 0.509685 0.073314
C 1.312189 0.412584 0.318866
C 2.175684 -0.144876 -0.633224
C 1.676346 -0.613203 -1.844365
C 0.311829 -0.525276 -2.106651
C -0.550013 0.031645 -1.155259
C -0.204461 -4.842911 -2.700643
C -0.343672 -3.828402 -1.587255
O -1.663454 -3.951332 -1.038207
C -1.929319 -3.057373 -0.042694
O -1.163537 -2.217018 0.405283
C -3.277078 -3.319334 0.523281
C -3.327805 -3.906605 1.735064
H 0.050328 2.167933 1.444967
H -1.620648 2.259297 0.654110
H -1.721096 -0.179745 0.497950
H 1.871815 -0.694042 2.171430
H 0.253893 1.626776 2.658807
H -1.544557 1.985216 2.859787
H -2.062586 1.094229 0.709474
H 1.740263 0.766643 1.251832
H 3.238927 -0.210267 -0.421786
H 2.348849 -1.044895 -2.580321
H -0.082957 -0.889555 -3.050765
H -1.610083 0.086270 -1.389484
H -0.916288 -4.638618 -3.506184
H 0.803128 -4.832948 -3.122899
H -0.419908 -5.853283 -2.340247
H 0.394429 -4.008412 -0.802687
H -0.207188 -2.825039 -1.994602
H -4.278236 -4.062728 2.234785
C -0.799447 1.644714 1.014009
C -0.854420 0.313791 0.932114
C 0.203859 -0.595186 1.399100
O 0.143568 -1.808470 1.337722
O 1.271758 0.034714 1.911940
C -0.744437 1.587823 2.242089
C -1.022376 1.084010 1.031227
C -0.063263 0.509729 0.073252
C 1.312626 0.412602 0.319054
C 2.175322 -0.144910 -0.633422
C 1.676602 -0.613161 -1.844186
C 0.311543 -0.525235 -2.106655
C -0.549641 0.031600 -1.155233
C -3.869309 -8.348488 4.799759
C -2.389215 -8.062628 4.918943
O -2.205548 -6.670685 4.631151
C -0.917048 -6.229422 4.819689
O 0.030918 -6.917862 5.169276
C -0.905155 -4.738375 4.608273
C -0.074889 -4.100859 5.461246
H 0.050454 2.168295 1.442702
H -1.619009 2.258425 0.648214
H -1.720596 -0.180776 0.497560
H 1.871888 -0.692185 2.170731
H 0.253880 1.626773 2.658796
H -1.544521 1.985200 2.859757
H -2.062594 1.094228 0.709469
H 1.740199 0.766605 1.251728
H 3.239051 -0.210269 -0.421749
H 2.348848 -1.044894 -2.580321
H -0.082943 -0.889552 -3.050753
H -1.610208 0.086281 -1.389500
H -4.238512 -8.088897 3.789707
H -4.083787 -9.408686 5.001027
H -4.435875 -7.729785 5.518359
H -1.843101 -8.664551 4.186386
H -2.046330 -8.301387 5.938354
H 0.534528 -4.682724 6.158518
C -0.799023 1.647685 1.013421
C -0.855453 0.310518 0.931925
C 0.203850 -0.594548 1.398274
O 0.145499 -1.808778 1.334558
O 1.270144 0.035304 1.914305
C -0.744461 1.587810 2.242052
C -1.022327 1.084013 1.031250
C -0.063345 0.509773 0.073323
C 1.312711 0.412543 0.318952
C 2.175230 -0.144845 -0.633309
C 1.676708 -0.613230 -1.844305
C 0.311438 -0.525173 -2.106553
C -0.549532 0.031543 -1.155323
C 6.165925 -1.369544 4.445157
C 5.488372 -2.655084 3.991604
O 4.135584 -2.386015 3.608452
C 3.210420 -2.392007 4.597566
O 3.455010 -2.529493 5.793606
C 1.829209 -2.085113 4.058727
C 1.498866 -1.922062 2.766845
H 0.051578 2.168124 1.439548
H -1.618838 2.258059 0.648647
H -1.720959 -0.180513 0.499995
H 1.871258 -0.692528 2.173419
H 0.253890 1.626773 2.658800
H -1.544521 1.985202 2.859762
H -2.062612 1.094228 0.709464
H 1.740205 0.766615 1.251752
H 3.239077 -0.210274 -0.421751
H 2.348811 -1.044870 -2.580281
H -0.082944 -0.889562 -3.050777
H -1.610239 0.086285 -1.389503
H 6.098906 -0.617721 3.655539
H 5.650419 -0.957217 5.316336
H 7.220987 -1.531755 4.703783
H 5.535044 -3.442852 4.761141
H 6.000466 -3.058906 3.106839
H 0.459555 -1.725523 2.504443
C -0.798236 1.647881 1.011943
C -0.854660 0.310775 0.930952
C 0.204019 -0.596154 1.400286
O 0.140757 -1.807895 1.343912
O 1.271664 0.035806 1.910026
C -0.744468 1.587749 2.241914
C -1.022390 1.084088 1.031395
C -0.063026 0.509743 0.073361
C 1.312422 0.412531 0.318827
C 2.175458 -0.144824 -0.633184
C 1.676551 -0.613255 -1.844412
C 0.311619 -0.525206 -2.106565
C -0.549784 0.031579 -1.155328
C 8.026925 -0.731918 -1.056944
C 6.750265 -1.443921 -1.448793
O 5.587049 -0.670325 -1.101790
C 5.135215 -0.795801 0.171199
O 5.722513 -1.359456 1.082063
C 3.814871 -0.091587 0.338880
C 3.639554 1.079649 -0.326210
H 0.051710 2.168348 1.438883
H -1.618019 2.258254 0.646229
H -1.720733 -0.180573 0.498666
H 1.871554 -0.693119 2.173195
H 0.253895 1.626776 2.658807
H -1.544543 1.985211 2.859779
H -2.062601 1.094228 0.709467
H 1.740249 0.766640 1.251822
H 3.238998 -0.210273 -0.421776
H 2.348812 -1.044872 -2.580283
H -0.082949 -0.889562 -3.050777
H -1.610153 0.086277 -1.389493
H 8.086952 0.252139 -1.533625
H 8.082777 -0.565251 0.030280
H 8.895688 -1.321229 -1.354508
H 6.676449 -2.433633 -0.984413
H 6.730752 -1.605363 -2.534633
H 4.455872 1.433526 -0.980105
C -0.802058 1.650690 1.027426
C -0.853091 0.310358 0.926689
C 0.205048 -0.595126 1.391932
O 0.144432 -1.809332 1.324526
O 1.272686 0.031937 1.907425
C -0.744437 1.587699 2.241815
C -1.022557 1.084174 1.031530
C -0.062431 0.509625 0.073297
C 1.311855 0.412642 0.318883
C 2.176029 -0.144932 -0.633233
C 1.676021 -0.613148 -1.844352
C 0.312155 -0.525346 -2.106698
C -0.550344 0.031711 -1.155223
C -2.220691 4.193677 -2.865601
C -1.012044 5.086565 -3.129061
O -0.193697 5.196210 -1.961500
C 0.719421 4.207009 -1.844764
O 0.874762 3.310752 -2.672685
C 1.564368 4.298975 -0.614010
C 1.569752 5.259645 0.332723
H 0.041084 2.165583 1.470554
H -1.620173 2.261451 0.662796
H -1.712744 -0.175339 0.479657
H 1.872871 -0.696898 2.163086
H 0.253892 1.626776 2.658807
H -1.544576 1.985223 2.859797
H -2.062570 1.094232 0.709485
H 1.740290 0.766650 1.251858
H 3.238823 -0.210258 -0.421801
H 2.348904 -1.044924 -2.580368
H -0.082980 -0.889558 -3.050777
H -1.609985 0.086263 -1.389466
H -1.902560 3.199515 -2.528973
H -2.807077 4.071377 -3.790389
H -2.863491 4.629298 -2.089793
H -0.441653 4.696710 -3.980566
H -1.350082 6.088946 -3.406052
H 2.344813 5.144217 1.097277
C -0.804977 1.648100 1.032392
C -0.850607 0.312790 0.922410
C 0.205960 -0.596080 1.391520
O 0.140561 -1.808321 1.332297
O 1.276837 0.032541 1.899218
C -0.744459 1.587777 2.241979
C -1.022398 1.084064 1.031338
C -0.063099 0.509715 0.073276
C 1.312500 0.412585 0.318975
C 2.175370 -0.144890 -0.633361
C 1.676589 -0.613179 -1.844229
C 0.311587 -0.525266 -2.106710
C -0.549759 0.031625 -1.155218
C 0.155819 11.479952 2.313635
C 0.780115 10.225460 2.903279
O 0.321188 9.012139 2.270864
C -0.971959 8.683562 2.387981
O -1.776008 9.349226 3.034029
C -1.339031 7.393925 1.671111
C -2.614030 7.016612 1.977929
H 0.033300 2.164789 1.486705
H -1.622351 2.260948 0.665749
H -1.706226 -0.175010 0.466078
H 1.875557 -0.696435 2.157723
H 0.253884 1.626775 2.658803
H -1.544535 1.985208 2.859772
H -2.062592 1.094227 0.709470
H 1.740226 0.766620 1.251768
H 3.239038 -0.210270 -0.421756
H 2.348835 -1.044893 -2.580322
H -0.082935 -0.889542 -3.050728
H -1.610163 0.086273 -1.389504
H -0.887905 11.580670 2.630405
H 0.159560 11.423459 1.225066
H 0.709015 12.380708 2.636862
H 0.615369 10.147165 3.980767
H 1.868412 10.254834 2.750718
H -3.214938 7.610257 2.656955
C -0.803662 1.645292 1.020139
C -0.855156 0.311819 0.931429
C 0.207933 -0.593003 1.396255
O 0.148988 -1.809330 1.331450
O 1.271322 0.037011 1.906350
C -0.744417 1.587688 2.241793
C -1.022662 1.084153 1.031450
C -0.061405 0.509816 0.074069
C 1.310802 0.412519 0.318259
C 2.177249 -0.144798 -0.632526
C 1.674473 -0.613255 -1.845108
C 0.313615 -0.525103 -2.105667
C -0.551431 0.031484 -1.156091
C 0.868650 -3.911072 -7.096977
C -0.608459 -3.595581 -7.286554
O -1.108160 -2.891966 -6.141108
C -1.104083 -1.529181 -6.209444
O -0.740124 -0.833824 -7.166211
C -1.630133 -0.938578 -4.929832
C -2.680257 -1.597263 -4.393433
H 0.044123 2.167997 1.452533
H -1.624502 2.256643 0.656717
H -1.718433 -0.182061 0.494614
H 1.877441 -0.691044 2.164606
H 0.253920 1.626777 2.658820
H -1.544581 1.985236 2.859818
H -2.062579 1.094249 0.709521
H 1.740461 0.766735 1.252104
H 3.238410 -0.210237 -0.421893
H 2.349086 -1.044968 -2.580405
H -0.083233 -0.889727 -3.051241
H -1.609619 0.086259 -1.389352
H 1.248557 -4.507017 -7.940806
H 1.026275 -4.468523 -6.160848
H 1.463559 -2.987796 -7.017777
H -1.175679 -4.530494 -7.356410
H -0.770537 -3.038908 -8.224362
H -3.059403 -2.475087 -4.919367
C -0.799883 1.650657 1.016318
C -0.855797 0.308065 0.931636
C 0.205521 -0.597142 1.394601
O 0.150330 -1.806150 1.323467
O 1.269267 0.034821 1.917778
C -0.744479 1.587788 2.241997
C -1.022309 1.084029 1.031291
C -0.063297 0.509808 0.073417
C 1.312672 0.412491 0.318824
C 2.175251 -0.144788 -0.633173
C 1.676697 -0.613290 -1.844442
C 0.311454 -0.525127 -2.106444
C -0.549551 0.031501 -1.155423
C -7.902427 -1.849672 -4.866720
C -7.825816 -1.823913 -3.349515
O -6.472117 -2.096156 -2.976858
C -6.254383 -2.179987 -1.640126
O -7.108146 -2.061691 -0.772661
C -4.793870 -2.460144 -1.358765
C -4.522939 -2.866676 -0.099432
H 0.050323 2.167995 1.441430
H -1.621161 2.257820 0.654288
H -1.720893 -0.180082 0.500257
H 1.870347 -0.692660 2.174316
H 0.253898 1.626774 2.658805
H -1.544525 1.985205 2.859769
H -2.062622 1.094229 0.709462
H 1.740227 0.766632 1.251795
H 3.239065 -0.210276 -0.421761
H 2.348791 -1.044856 -2.580255
H -0.082955 -0.889576 -3.050810
H -1.610228 0.086285 -1.389499
H -7.232209 -1.093918 -5.300469
H -8.921743 -1.657251 -5.212564
H -7.570725 -2.824726 -5.248542
H -8.120236 -0.835669 -2.978379
H -8.492925 -2.589411 -2.935287
H -5.364356 -2.901818 0.587933
C -0.799884 1.645605 1.013475
C -0.855157 0.311366 0.932388
C 0.205604 -0.593907 1.397685
O 0.149430 -1.808982 1.328742
O 1.268429 0.036365 1.917781
C -0.744476 1.587766 2.241948
C -1.022348 1.084063 1.031354
C -0.063192 0.509767 0.073359
C 1.312582 0.412514 0.318842
C 2.175304 -0.144809 -0.633202
C 1.676691 -0.613270 -1.844399
C 0.311477 -0.525179 -2.106553
C -0.549632 0.031552 -1.155337
C -1.572791 -8.710701 1.237716
C -1.675892 -7.471306 0.348897
O -2.307124 -6.390655 1.042556
C -1.479232 -5.659187 1.825985
O -0.297962 -5.903500 2.021104
C -2.211995 -4.529201 2.468911
C -1.855703 -4.100239 3.704331
H 0.050434 2.168363 1.439182
H -1.620771 2.257249 0.649098
H -1.721202 -0.181841 0.500224
H 1.871173 -0.690895 2.175516
H 0.253895 1.626775 2.658806
H -1.544534 1.985208 2.859774
H -2.062610 1.094227 0.709463
H 1.740233 0.766634 1.251802
H 3.239049 -0.210276 -0.421765
H 2.348793 -1.044862 -2.580268
H -0.082940 -0.889560 -3.050771
H -1.610202 0.086280 -1.389501
H -1.173206 -9.557942 0.671301
H -2.551926 -8.972581 1.646627
H -0.894405 -8.512801 2.073323
H -2.296755 -7.699808 -0.539222
H -0.681262 -7.183607 -0.029719
H -2.373238 -3.245642 4.123061
C -0.800105 1.647835 1.016379
C -0.855281 0.310143 0.933586
C 0.206462 -0.589806 1.394406
O 0.154593 -1.811816 1.315566
O 1.266068 0.033756 1.922697
C -0.744432 1.587744 2.241915
C -1.022528 1.084096 1.031366
C -0.062342 0.509762 0.073635
C 1.311747 0.412551 0.318646
C 2.176162 -0.144847 -0.633001
C 1.675684 -0.613207 -1.844596
C 0.312466 -0.525205 -2.106281
C -0.550513 0.031572 -1.155588
C -0.609597 -0.698982 9.554738
C -1.346603 -0.363530 8.268755
O -0.633222 -0.883724 7.146368
C -0.949005 -2.148843 6.767804
O -1.858932 -2.816289 7.252316
C -0.036712 -2.665893 5.685896
C 0.791234 -1.809535 5.054398
H 0.050456 2.168015 1.440126
H -1.621637 2.257928 0.653857
H -1.722185 -0.181001 0.501583
H 1.869682 -0.691731 2.175891
H 0.253892 1.626777 2.658809
H -1.544552 1.985217 2.859786
H -2.062571 1.094234 0.709491
H 1.740333 0.766671 1.251918
H 3.238765 -0.210257 -0.421817
H 2.348941 -1.044926 -2.580361
H -0.083057 -0.889616 -3.050933
H -1.609906 0.086264 -1.389438
H -0.656077 -1.778980 9.742322
H -1.055041 -0.168101 10.404484
H 0.453446 -0.440269 9.462708
H -2.377214 -0.734315 8.303115
H -1.419042 0.723492 8.136017
H 0.813254 -0.748180 5.342020
C -0.800004 1.648382 1.016000
C -0.854905 0.310939 0.930568
C 0.204074 -0.597519 1.399847
O 0.138303 -1.806225 1.347659
O 1.275308 0.035373 1.902848
C -0.744461 1.587778 2.241979
C -1.022394 1.084070 1.031352
C -0.063185 0.509683 0.073176
C 1.312589 0.412614 0.319070
C 2.175274 -0.144920 -0.633461
C 1.676714 -0.613150 -1.844125
C 0.311469 -0.525305 -2.106837
C -0.549669 0.031660 -1.155109
C 2.547272 -6.155740 0.305300
C 3.390402 -5.320068 1.261632
O 2.719440 -4.125597 1.699116
C 2.832025 -3.038496 0.879903
O 3.222450 -3.067400 -0.270584
C 2.418381 -1.812859 1.633135
C 2.882383 -0.570627 1.348414
H 0.047841 2.168265 1.447687
H -1.619731 2.257784 0.649709
H -1.718491 -0.180252 0.495229
H 1.875660 -0.693425 2.164545
H 0.253882 1.626775 2.658802
H -1.544535 1.985207 2.859772
H -2.062592 1.094226 0.709468
H 1.740206 0.766608 1.251735
H 3.239073 -0.210271 -0.421745
H 2.348827 -1.044894 -2.580329
H -0.082911 -0.889524 -3.050679
H -1.610196 0.086273 -1.389516
H 2.396402 -5.612112 -0.638824
H 1.564348 -6.361908 0.720876
H 3.041129 -7.113339 0.098880
H 4.359097 -5.064872 0.799070
H 3.610914 -5.910725 2.168994
H 2.489354 0.246642 1.953533
C -0.801177 1.647506 1.022256
C -0.851234 0.313535 0.923760
C 0.203305 -0.598660 1.396027
O 0.133108 -1.806222 1.352181
O 1.280390 0.032340 1.895892
C -0.744431 1.587774 2.241982
C -1.022494 1.084078 1.031338
C -0.062743 0.509684 0.073326
C 1.312152 0.412633 0.318966
C 2.175718 -0.144942 -0.633360
C 1.676186 -0.613115 -1.844222
C 0.311989 -0.525319 -2.106694
C -0.550137 0.031671 -1.155241
C -1.921950 1.660358 0.211705
C -0.786592 1.224119 1.113077
O 0.441266 1.891025 0.773424
C 1.103965 1.337680 -0.282492
O 0.746376 0.394251 -0.970979
C 2.465198 1.949376 -0.337202
C 2.613424 3.285155 -0.488135
H 0.041352 2.166551 1.467766
H -1.619495 2.260141 0.656079
H -1.711132 -0.177140 0.476946
H 1.872937 -0.694727 2.163186
H 0.253876 1.626776 2.658802
H -1.544542 1.985210 2.859775
H -2.062566 1.094229 0.709483
H 1.740259 0.766628 1.251796
H 3.238925 -0.210261 -0.421773
H 2.348907 -1.044929 -2.580379
H -0.082972 -0.889552 -3.050762
H -1.610038 0.086264 -1.389482
H -2.013782 2.750992 0.197094
H -1.738416 1.358244 -0.824634
H -2.877052 1.223279 0.536628
H -1.009289 1.478698 2.145632
H -0.664985 0.134600 1.084757
H 3.624132 3.698963 -0.524716
C -0.800205 1.648404 1.016905
C -0.854571 0.310005 0.930898
C 0.204883 -0.595774 1.395935
O 0.146877 -1.807707 1.329289
O 1.271056 0.034303 1.914358
C -0.744439 1.587693 2.241800
C -1.022547 1.084167 1.031518
C -0.062346 0.509691 0.073473
C 1.311765 0.412566 0.318684
C 2.176127 -0.144850 -0.633018
C 1.675908 -0.613229 -1.844571
C 0.312261 -0.525259 -2.106468
C -0.550424 0.031634 -1.155422
C 2.511141 10.561738 -0.552636
C 2.042207 9.281034 -1.216316
O 1.115977 8.520827 -0.431658
C 1.683733 7.706400 0.506650
O 2.813330 7.795158 0.967809
C 0.844997 6.474113 0.643285
C -0.504018 6.526495 0.810285
H 0.048833 2.167846 1.446358
H -1.620304 2.258536 0.652998
H -1.719353 -0.179774 0.495798
H 1.870839 -0.692517 2.171552
H 0.253898 1.626777 2.658811
H -1.544575 1.985224 2.859799
H -2.062576 1.094232 0.709485
H 1.740326 0.766677 1.251929
H 3.238788 -0.210262 -0.421821
H 2.348896 -1.044908 -2.580336
H -0.083014 -0.889590 -3.050862
H -1.609959 0.086266 -1.389451
H 1.679372 11.264234 -0.447213
H 2.917796 10.368795 0.446478
H 3.279686 11.044690 -1.162446
H 1.548715 9.517576 -2.162143
H 2.905222 8.656315 -1.493747
H -1.087579 5.905192 0.102038
C -0.801413 1.646362 1.010209
C -0.854858 0.309871 0.934319
C 0.204141 -0.590993 1.398005
O 0.150486 -1.810759 1.330763
O 1.270827 0.034738 1.918944
C -0.744469 1.587801 2.242027
C -1.022316 1.084020 1.031268
C -0.063337 0.509789 0.073361
C 1.312707 0.412518 0.318896
C 2.175225 -0.144818 -0.633249
C 1.676721 -0.613259 -1.844365
C 0.311427 -0.525151 -2.106508
C -0.549525 0.031524 -1.155364
C -0.953808 4.381752 5.548576
C -1.842964 3.824901 4.468873
O -2.046235 4.841684 3.491446
C -3.006583 4.549708 2.564448
O -3.617233 3.499917 2.471776
C -3.237118 5.736865 1.683533
C -4.172131 5.692017 0.756065
H 0.052464 2.169066 1.433125
H -1.620239 2.255714 0.647851
H -1.723400 -0.183059 0.505684
H 1.870047 -0.687618 2.175192
H 0.253893 1.626774 2.658802
H -1.544522 1.985203 2.859765
H -2.062617 1.094228 0.709463
H 1.740214 0.766622 1.251770
H 3.239076 -0.210275 -0.421755
H 2.348799 -1.044862 -2.580267
H -0.082947 -0.889567 -3.050789
H -1.610239 0.086285 -1.389502
H 0.051065 4.571210 5.146549
H -1.319709 5.339298 5.928856
H -0.851466 3.686444 6.385907
H -2.794905 3.495716 4.889783
H -1.347441 2.971127 4.007222
H -4.891206 5.620943 -0.020883
