416
Molecule ID: homopoly_23688
C 1.060134 5.413835 4.992617
C 2.263730 5.812090 4.155361
C 1.840057 6.369581 2.796608
C 3.046340 6.775837 1.955526
O 3.777375 5.600854 1.608546
C 5.011426 5.914995 0.956416
C 5.640200 4.627018 0.439128
O 4.904727 4.202187 -0.718875
C 5.434289 3.121230 -1.340762
O 6.412464 2.478874 -0.984811
C 4.746316 2.830603 -2.565984
C 4.175393 2.659410 -3.723779
H 0.453138 4.663876 4.475176
H 0.427917 6.282783 5.210386
H 1.385440 4.984528 5.947469
H 2.843053 6.564197 4.700715
H 2.909007 4.937456 4.019937
H 1.265491 5.607611 2.258028
H 1.193012 7.243225 2.939111
H 2.708387 7.265218 1.034559
H 3.687001 7.470672 2.511516
H 5.679289 6.388785 1.683879
H 4.820419 6.601560 0.125302
H 6.680026 4.820878 0.154158
H 5.596401 3.841236 1.202761
H 3.173079 3.046411 -3.835057
C -2.610458 8.385845 -5.950506
C -1.767307 8.046129 -4.731800
C -0.929103 6.779328 -4.905989
C -1.774752 5.509172 -4.989606
O -0.980786 4.335694 -5.157884
C -0.243590 3.958858 -3.990493
C 0.277432 2.537792 -4.170849
O 1.362378 2.526662 -5.114505
C 1.833980 1.280847 -5.346823
O 1.388079 0.254824 -4.860000
C 2.931570 1.276486 -6.341844
C 2.593921 0.794286 -7.560396
H -3.119100 9.343817 -5.798891
H -1.988433 8.468902 -6.847431
H -3.379334 7.629043 -6.127900
H -1.094874 8.887598 -4.526198
H -2.415521 7.944239 -3.853437
H -0.291511 6.859367 -5.796275
H -0.241160 6.705745 -4.057526
H -2.418143 5.396214 -4.108414
H -2.430857 5.556863 -5.864179
H 0.592960 4.651108 -3.853259
H -0.901819 3.997229 -3.114747
H 0.651337 2.171737 -3.208343
H -0.532492 1.892784 -4.533192
H 3.355351 0.684185 -8.331448
C -1.623812 -6.397603 -7.223786
C -2.429407 -6.089688 -8.476334
C -2.211032 -7.098529 -9.610652
C -0.769395 -7.190094 -10.109002
O -0.325326 -5.896083 -10.506507
C 1.031473 -5.907354 -10.964198
C 1.505239 -4.466594 -11.115340
O 1.615885 -3.899685 -9.801348
C 1.815511 -2.557113 -9.780019
O 1.994520 -1.840228 -10.754232
C 1.680911 -2.043824 -8.375631
C 2.304347 -2.762607 -7.423682
H -0.550559 -6.276988 -7.399500
H -1.808453 -7.418555 -6.876202
H -1.905978 -5.710121 -6.419626
H -3.495539 -6.088085 -8.218059
H -2.190478 -5.077165 -8.821729
H -2.850053 -6.794585 -10.447611
H -2.548016 -8.093250 -9.293254
H -0.117791 -7.585021 -9.319857
H -0.724521 -7.870595 -10.967509
H 1.071522 -6.424322 -11.929250
H 1.659109 -6.435450 -10.237290
H 2.488017 -4.441102 -11.594538
H 0.778111 -3.894941 -11.702881
H 2.938208 -3.593148 -7.739753
C 4.220365 -10.094365 -2.020615
C 4.671769 -10.237492 -0.576376
C 3.749678 -9.581141 0.456495
C 3.498784 -8.090934 0.232780
O 2.518369 -7.940053 -0.792253
C 2.085020 -6.594340 -0.988174
C 3.129927 -5.725638 -1.696816
O 2.573785 -4.470226 -2.129502
C 1.865085 -4.531545 -3.284493
O 1.670228 -5.549883 -3.936435
C 1.358435 -3.196493 -3.742354
C 1.010859 -2.155659 -2.956474
H 3.187492 -10.438542 -2.147190
H 4.289606 -9.056186 -2.359971
H 4.861530 -10.695234 -2.675184
H 5.682704 -9.828371 -0.476320
H 4.742790 -11.306945 -0.342049
H 2.792550 -10.116680 0.467303
H 4.209370 -9.714539 1.443526
H 3.115921 -7.647145 1.159355
H 4.428114 -7.580075 -0.043650
H 1.778099 -6.144729 -0.039118
H 1.173869 -6.646041 -1.593746
H 3.599610 -6.260740 -2.534308
H 3.942456 -5.488479 -1.003532
H 0.638477 -1.257688 -3.444197
C 11.435587 0.644523 1.195358
C 10.033875 0.816622 0.631736
C 9.022101 -0.023106 1.404179
C 7.623466 0.089636 0.811740
O 6.816610 -0.939624 1.380852
C 5.461555 -0.842218 0.945183
C 4.747998 -2.146478 1.270098
O 3.361244 -2.000564 0.961271
C 2.619392 -3.118089 1.102907
O 3.010086 -4.225333 1.446963
C 1.189753 -2.797353 0.809713
C 0.441078 -2.706489 1.921823
H 11.479573 0.952711 2.244240
H 11.757735 -0.401265 1.132054
H 12.150259 1.252411 0.631800
H 10.035585 0.517848 -0.423427
H 9.750940 1.875600 0.670636
H 9.333420 -1.073813 1.414133
H 8.992694 0.286734 2.457266
H 7.195165 1.071717 1.049129
H 7.655072 -0.043976 -0.276386
H 5.401916 -0.648824 -0.132296
H 4.978227 -0.001510 1.458161
H 4.864672 -2.390631 2.331941
H 5.184478 -2.957685 0.677516
H 0.989683 -2.822040 2.861844
C -5.199477 -10.277535 -0.160904
C -4.817800 -8.856912 -0.542049
C -5.962380 -7.851165 -0.383527
C -6.549678 -7.770647 1.027412
O -5.554097 -7.624784 2.037811
C -5.011172 -6.308347 2.110337
C -3.980744 -6.254116 3.230531
O -3.300331 -4.994221 3.187747
C -3.551848 -4.120325 4.196571
O -4.270887 -4.321309 5.160198
C -2.790036 -2.852480 3.925504
C -3.187002 -1.656772 4.413366
H -4.391175 -10.965917 -0.427584
H -6.105477 -10.597383 -0.682643
H -5.367050 -10.367799 0.915775
H -4.493739 -8.845341 -1.589195
H -3.956233 -8.538964 0.056981
H -5.587300 -6.864050 -0.678530
H -6.769697 -8.094989 -1.085748
H -7.091495 -8.698278 1.247173
H -7.284844 -6.959168 1.101122
H -4.528832 -6.039882 1.162303
H -5.807221 -5.578541 2.296619
H -4.450458 -6.463037 4.199795
H -3.227094 -7.035877 3.082056
H -2.543590 -0.794639 4.245299
C 0.793119 -7.967591 3.164993
C 0.248483 -7.807588 4.576840
C -0.223408 -6.376561 4.842173
C -0.928845 -6.273395 6.191651
O -1.047363 -4.900821 6.568415
C -1.801320 -4.781634 7.787613
C -1.647995 -3.382710 8.374033
O -2.418757 -2.449137 7.604854
C -2.163223 -1.146902 7.874157
O -1.329013 -0.732903 8.670072
C -3.025685 -0.254498 7.033317
C -2.563951 1.005697 6.872674
H 1.526357 -7.186498 2.933990
H 1.280518 -8.942690 3.054273
H -0.017448 -7.905692 2.429623
H 1.038189 -8.063476 5.296102
H -0.573972 -8.517827 4.729443
H -0.909199 -6.053390 4.052095
H 0.631778 -5.690576 4.806981
H -0.352977 -6.803144 6.958692
H -1.924241 -6.726727 6.119510
H -1.422597 -5.506020 8.516736
H -2.851696 -5.000423 7.570994
H -2.038616 -3.375243 9.396700
H -0.592222 -3.092419 8.376279
H -1.612296 1.281269 7.330036
C -3.583297 6.935721 12.517526
C -2.926167 5.711389 11.897921
C -3.930631 4.721835 11.303299
C -4.751884 5.282018 10.145567
O -3.874822 5.706415 9.105945
C -4.592161 6.261552 7.998032
C -3.583333 6.763227 6.966659
O -2.938861 5.666247 6.292883
C -3.629857 5.157558 5.239911
O -4.734189 5.511597 4.860947
C -2.799457 4.098795 4.601798
C -2.253376 4.282063 3.380819
H -2.832175 7.548614 13.025668
H -4.338763 6.646455 13.254707
H -4.060188 7.561152 11.757338
H -2.208865 6.033142 11.133240
H -2.347842 5.194990 12.674314
H -4.609932 4.367275 12.085529
H -3.367607 3.851071 10.943788
H -5.369193 6.122604 10.478083
H -5.416770 4.502888 9.759238
H -5.197973 7.103476 8.349202
H -5.242178 5.491240 7.571089
H -4.061667 7.428927 6.236792
H -2.788820 7.330406 7.460841
H -1.637368 3.465870 2.997661
C 11.122208 9.479628 -2.725944
C 11.738515 8.239579 -2.097258
C 11.398323 6.943252 -2.832839
C 9.906755 6.630923 -2.855955
O 9.715647 5.369187 -3.498245
C 8.329007 5.059610 -3.629957
C 8.143712 3.717610 -4.329919
O 6.734627 3.504596 -4.472955
C 6.372608 2.288750 -4.963750
O 7.131614 1.445709 -5.409127
C 4.873060 2.165903 -4.896653
C 4.320082 1.602437 -5.998619
H 11.395381 9.564518 -3.782622
H 11.476821 10.378150 -2.210352
H 10.029168 9.467844 -2.652281
H 11.421901 8.168881 -1.050922
H 12.829291 8.357730 -2.090549
H 11.929401 6.109946 -2.354770
H 11.778172 6.981622 -3.861947
H 9.363837 7.403365 -3.411866
H 9.511517 6.583764 -1.833640
H 7.828237 5.843157 -4.212877
H 7.856763 5.028479 -2.638944
H 8.621561 3.727325 -5.316406
H 8.591597 2.915986 -3.729278
H 5.013603 1.298628 -6.787321
C -6.412187 -3.649749 -9.597883
C -5.702730 -2.577376 -10.413808
C -4.915058 -1.626985 -9.515952
C -4.239035 -0.519070 -10.318125
O -3.524385 0.308121 -9.401556
C -2.853058 1.384733 -10.063558
C -1.889348 2.045329 -9.082731
O -0.891151 1.068924 -8.743147
C 0.271431 1.543348 -8.233574
O 0.533348 2.721232 -8.057623
C 1.247469 0.413845 -7.984170
C 0.862654 -0.852370 -8.239909
H -7.018615 -4.285313 -10.252886
H -5.689077 -4.287587 -9.076591
H -7.076279 -3.199500 -8.850976
H -6.448544 -2.014814 -10.989427
H -5.029492 -3.059794 -11.133510
H -5.576444 -1.176176 -8.765086
H -4.154893 -2.183703 -8.951962
H -3.542358 -0.954650 -11.045700
H -4.986567 0.082598 -10.849058
H -2.292630 0.996000 -10.920936
H -3.597412 2.109531 -10.411104
H -1.430002 2.923232 -9.551334
H -2.406597 2.332110 -8.161567
H -0.160189 -1.044374 -8.571392
C 10.353798 -3.411577 -0.024002
C 9.101987 -3.612367 -0.862739
C 9.444791 -3.746110 -2.348849
C 8.208328 -4.007240 -3.200283
O 7.322250 -2.896249 -3.095345
C 6.105016 -3.129203 -3.800885
C 5.176541 -1.928943 -3.642521
O 3.877654 -2.252383 -4.158425
C 3.712577 -2.107997 -5.490164
O 4.575155 -1.707549 -6.260133
C 2.370702 -2.591244 -5.976307
C 1.348685 -3.031589 -5.204534
H 10.855205 -2.477348 -0.293746
H 10.097288 -3.368615 1.038870
H 11.061849 -4.234486 -0.167181
H 8.427333 -2.762360 -0.703623
H 8.576028 -4.510215 -0.516799
H 9.929584 -2.820811 -2.682346
H 10.158115 -4.566102 -2.491041
H 7.705032 -4.919517 -2.862138
H 8.505331 -4.134994 -4.247627
H 6.315554 -3.310686 -4.861783
H 5.611577 -4.024775 -3.403332
H 5.061993 -1.690839 -2.579085
H 5.594002 -1.030291 -4.114259
H 0.466333 -3.460128 -5.679216
C 3.846319 2.095598 6.456258
C 3.112700 0.778971 6.234151
C 3.066079 0.355862 4.765705
C 2.272409 1.304779 3.873398
O 2.351925 0.816925 2.535832
C 1.619113 1.636811 1.618925
C 1.989003 1.245527 0.192834
O 1.411555 -0.032158 -0.124264
C 1.957517 -0.653836 -1.201708
O 2.871715 -0.207385 -1.880513
C 1.216589 -1.930189 -1.529047
C 0.774583 -2.780103 -0.580349
H 3.268597 2.943990 6.075939
H 4.822519 2.093049 5.959431
H 4.012084 2.262170 7.526742
H 2.096959 0.854478 6.641810
H 3.630125 -0.001232 6.806676
H 4.086977 0.254508 4.377923
H 2.627479 -0.646336 4.697599
H 1.224915 1.343176 4.191645
H 2.697834 2.311807 3.908346
H 1.881574 2.687276 1.779440
H 0.550179 1.488691 1.797661
H 3.079432 1.204894 0.098139
H 1.582415 1.980049 -0.510042
H 0.184040 -3.646106 -0.870871
C -9.437440 -5.413081 -1.469339
C -8.184384 -4.731688 -1.997442
C -7.404030 -4.056121 -0.874108
C -6.184367 -3.310087 -1.402030
O -5.557134 -2.672429 -0.291843
C -4.499305 -1.798672 -0.700222
C -3.997264 -1.040161 0.522287
O -3.134265 -1.877842 1.316371
C -1.803064 -1.664699 1.171050
O -1.321843 -0.894660 0.352085
C -0.991922 -2.484739 2.132286
C -1.479260 -2.969891 3.296659
H -9.186389 -6.174870 -0.725248
H -9.978745 -5.899094 -2.287443
H -10.110129 -4.685394 -1.000790
H -8.472087 -3.988932 -2.751878
H -7.550451 -5.474352 -2.496936
H -8.052643 -3.356449 -0.333570
H -7.084787 -4.797772 -0.133355
H -6.495389 -2.560543 -2.136266
H -5.478805 -4.004459 -1.871396
H -4.897201 -1.082769 -1.429011
H -3.701907 -2.390507 -1.159231
H -4.835572 -0.752699 1.164846
H -3.495029 -0.116374 0.219014
H -0.819789 -3.569053 3.930307
C -10.250743 0.301518 -1.630486
C -10.277330 -0.626065 -0.424073
C -10.040174 0.142973 0.877864
C -10.144727 -0.756069 2.105154
O -9.163857 -1.791114 2.121783
C -7.863427 -1.333482 2.499888
C -7.031655 -2.522008 2.975982
O -5.758578 -2.098051 3.487514
C -5.751146 -1.738164 4.799868
O -6.737205 -1.676990 5.519106
C -4.359147 -1.370382 5.223844
C -4.252485 -0.754492 6.422308
H -9.295209 0.829616 -1.701586
H -10.397079 -0.269601 -2.552602
H -11.052898 1.046041 -1.565247
H -11.250657 -1.131481 -0.387136
H -9.512962 -1.400772 -0.550636
H -10.782158 0.944070 0.965548
H -9.051577 0.614880 0.839809
H -10.087014 -0.165322 3.026901
H -11.121077 -1.251084 2.111522
H -7.927303 -0.580191 3.295360
H -7.375881 -0.863796 1.637730
H -7.580116 -3.116867 3.718830
H -6.847260 -3.205934 2.139997
H -5.137752 -0.619126 7.046060
C -4.248963 -1.607404 11.611175
C -5.046031 -2.047172 10.394094
C -6.542206 -1.737877 10.505698
C -6.875531 -0.245928 10.486842
O -6.475951 0.314386 9.234711
C -6.764373 1.714829 9.159793
C -6.468129 2.219662 7.749359
O -5.048015 2.205563 7.537628
C -4.668759 2.317530 6.238671
O -5.401357 2.527080 5.283108
C -3.192973 2.102621 6.137182
C -2.428368 2.910316 5.375005
H -3.206264 -1.925905 11.510337
H -4.254818 -0.519489 11.723989
H -4.650791 -2.053219 12.526604
H -4.632558 -1.576722 9.495720
H -4.924461 -3.130265 10.272104
H -7.043029 -2.215867 9.654897
H -6.948003 -2.187935 11.419026
H -7.958997 -0.125353 10.601734
H -6.379622 0.281749 11.307997
H -7.823656 1.880251 9.391598
H -6.141334 2.234370 9.892969
H -6.964053 1.573397 7.014729
H -6.823175 3.250638 7.642623
H -1.364634 2.674817 5.299995
C 4.106346 8.959177 -2.107445
C 3.214483 8.720515 -3.315172
C 1.983509 9.629242 -3.364124
C 1.076393 9.548872 -2.139841
O 0.706092 8.192529 -1.895811
C -0.155542 8.078352 -0.767266
C -0.485803 6.614628 -0.517015
O -1.342332 6.552478 0.628536
C -1.484304 5.324656 1.191353
O -0.989226 4.286267 0.772304
C -2.293519 5.414272 2.457630
C -2.879659 6.543062 2.756240
H 4.376157 10.015126 -2.015304
H 5.028559 8.378374 -2.202009
H 3.613344 8.645771 -1.182850
H 3.801327 8.888789 -4.227135
H 2.904135 7.668766 -3.332608
H 2.297902 10.669493 -3.504335
H 1.401279 9.347934 -4.249793
H 0.173637 10.146325 -2.320620
H 1.584565 9.957438 -1.258062
H -1.077659 8.646054 -0.941069
H 0.331183 8.503962 0.119706
H 0.438385 6.051049 -0.349702
H -1.000703 6.186713 -1.383779
H -3.367912 7.466852 2.976124
