1136
Molecule ID: homopoly_5326713
C -8.868749 -3.827413 -9.189148
O -7.887355 -3.464195 -8.229354
C -6.989345 -2.542112 -8.619282
O -6.829487 -1.965072 -9.741011
C -6.182799 -2.330753 -7.450433
C -5.866427 -2.414159 -6.186614
C -7.039410 -3.009867 -5.493162
C -7.053340 -4.392761 -5.279822
C -8.194693 -4.990688 -4.758457
C -9.338653 -4.229268 -4.498160
C -9.359765 -2.864800 -4.761968
N -10.525691 -2.082259 -4.418004
C -10.867266 -0.935971 -5.253146
C -11.326255 -1.268231 -6.653128
C -10.410171 -1.107919 -7.698289
C -10.826177 -1.126024 -9.012530
C -12.176887 -1.340332 -9.360454
C -12.520693 -1.147280 -10.777038
C -11.631864 -1.553690 -11.798834
C -11.750401 -1.074183 -13.094329
C -12.775221 -0.205163 -13.471319
N -12.874543 0.316301 -14.771131
C -13.920723 1.290967 -15.030255
C -11.661762 0.424329 -15.576133
C -13.757149 0.042532 -12.482146
C -13.639614 -0.406882 -11.163818
C -13.091388 -1.613278 -8.345407
C -12.663987 -1.589991 -6.985169
C -11.026165 -2.276617 -3.098109
O -10.698484 -3.206389 -2.367098
C -12.019686 -1.265130 -2.483101
C -13.468208 -1.392572 -2.985048
C -14.369762 -0.572431 -2.076867
C -13.980840 0.905168 -2.044565
C -12.618311 1.214992 -2.647436
C -11.553172 0.182366 -2.313139
C -8.234812 -2.271245 -5.291930
H -8.965927 -3.069147 -9.955191
H -9.813625 -3.934412 -8.670202
H -8.576197 -4.785999 -9.608311
H -6.161827 -4.998981 -5.475086
H -8.202769 -6.033523 -4.517242
H -10.194675 -4.749158 -4.077560
H -11.682794 -0.373114 -4.825271
H -10.026962 -0.240584 -5.317014
H -9.378944 -0.873343 -7.500081
H -10.086598 -0.899681 -9.778293
H -10.760652 -2.171955 -11.535504
H -10.983854 -1.383304 -13.802556
H -13.966398 2.080650 -14.266427
H -13.788475 1.785421 -15.984993
H -14.881353 0.776961 -15.073900
H -11.257040 -0.565393 -15.801363
H -10.894703 1.047148 -15.103271
H -11.894789 0.864922 -16.544702
H -14.617452 0.666343 -12.693668
H -14.361571 -0.080763 -10.421039
H -14.144736 -1.793940 -8.563598
H -13.415120 -1.738371 -6.211740
H -12.090562 -1.656627 -1.460758
H -13.778928 -2.452834 -2.970507
H -13.587769 -1.058925 -4.021516
H -14.308571 -0.989598 -1.062071
H -15.408276 -0.689388 -2.401794
H -14.735492 1.480524 -2.586825
H -14.000671 1.246444 -1.006605
H -12.270380 2.191334 -2.300098
H -12.726858 1.293113 -3.733071
H -11.276423 0.316733 -1.264328
H -10.633784 0.368612 -2.879057
H -8.205640 -1.224145 -5.530559
C -5.488454 1.611210 -2.656265
O -4.999964 1.029965 -3.836072
C -3.644733 0.926303 -3.774824
O -2.931023 1.285952 -2.857757
C -3.135281 0.176780 -5.030520
C -1.743166 0.123746 -5.230615
C -0.933221 -0.752891 -6.210398
C 0.488412 -0.596491 -6.335443
C 1.144710 -1.142750 -7.419663
C 0.400657 -1.826349 -8.441296
C -0.982712 -1.968644 -8.299524
N -1.832649 -2.778278 -9.101701
C -1.567200 -4.185548 -8.637627
C -2.691486 -5.162396 -8.536826
C -2.311375 -6.530178 -8.634814
C -3.176408 -7.536579 -8.250815
C -4.451617 -7.235398 -7.726342
C -5.211495 -8.223113 -6.905049
C -6.409237 -7.804259 -6.318292
C -6.970508 -8.476913 -5.259037
C -6.497043 -9.695284 -4.768333
N -7.109712 -10.328617 -3.682275
C -8.434723 -9.954429 -3.253924
C -6.826612 -11.752331 -3.586422
C -5.363819 -10.174613 -5.441134
C -4.723383 -9.472871 -6.490758
C -4.894926 -5.910759 -7.870175
C -4.005272 -4.867444 -8.196118
C -1.665188 -2.753265 -10.529329
O -0.567790 -3.063683 -11.088223
C -3.013350 -2.593610 -11.278496
C -2.751786 -2.341764 -12.810204
C -4.103868 -2.357345 -13.599613
C -5.203363 -3.256332 -12.989403
C -4.570847 -4.456256 -12.314073
C -3.775204 -3.942012 -11.132411
C -1.593799 -1.544903 -7.124620
H -4.842077 2.426427 -2.297403
H -6.489891 2.015319 -2.836605
H -5.555327 0.833123 -1.892650
H 1.083537 0.004259 -5.643715
H 2.211426 -1.024348 -7.540537
H 0.947454 -2.230397 -9.315989
H -1.176115 -4.191859 -7.603580
H -0.782237 -4.615405 -9.285889
H -1.311406 -6.766274 -8.962484
H -2.801720 -8.567778 -8.253149
H -6.919854 -6.880394 -6.582195
H -7.839506 -8.013914 -4.805601
H -8.515602 -10.164528 -2.192179
H -9.192049 -10.519995 -3.822660
H -8.686122 -8.880368 -3.329469
H -5.834252 -11.902225 -3.138165
H -7.537394 -12.241993 -2.864601
H -6.960453 -12.280348 -4.570163
H -4.881486 -11.105082 -5.151006
H -3.799440 -9.880966 -6.916749
H -5.919191 -5.601635 -7.623754
H -4.366423 -3.845215 -8.166048
H -3.570508 -1.711060 -10.916208
H -2.178894 -1.416557 -13.009943
H -2.118358 -3.149187 -13.211542
H -3.884164 -2.656590 -14.637377
H -4.471227 -1.332139 -13.696263
H -5.966977 -3.539953 -13.731086
H -5.723264 -2.684275 -12.221183
H -3.927878 -4.996298 -13.003538
H -5.343241 -5.181422 -11.984377
H -3.083624 -4.741153 -10.834892
H -4.486104 -3.770541 -10.320071
H -2.594761 -1.849091 -6.938024
C -4.010175 3.725195 -5.909776
O -2.638464 3.966036 -5.639727
C -2.381866 3.903308 -4.288769
O -3.179072 3.903154 -3.360037
C -0.896223 3.433019 -4.048907
C -0.323851 3.673028 -2.811902
C 1.202820 3.896361 -2.739849
C 1.541793 5.247894 -3.011501
C 2.823586 5.677754 -2.921823
C 3.841181 4.803821 -2.535744
C 3.590099 3.473826 -2.355310
N 4.653801 2.489268 -2.336441
C 4.732312 1.595481 -1.200151
C 6.098651 1.820006 -0.492863
C 6.821895 0.785179 0.101601
C 8.151309 0.976150 0.498749
C 8.768515 2.220758 0.321541
C 10.136561 2.538156 0.723007
C 10.879637 3.426926 -0.056299
C 12.091472 3.943410 0.381037
C 12.653644 3.577324 1.598451
N 13.842749 4.132120 2.049991
C 14.614383 5.012932 1.195533
C 14.410746 3.713443 3.309545
C 11.935414 2.625294 2.345413
C 10.704159 2.093961 1.923989
C 8.018512 3.275075 -0.226972
C 6.700482 3.088456 -0.581267
C 5.670300 2.335220 -3.287229
O 6.248087 1.251588 -3.385033
C 6.239431 3.549206 -4.003735
C 7.590813 3.222502 -4.649109
C 8.254732 4.547329 -5.016145
C 7.330152 5.504742 -5.791195
C 5.878459 5.544962 -5.319948
C 5.386758 4.134683 -5.111698
C 2.258408 3.001485 -2.369865
H -4.556562 4.683663 -5.887976
H -4.489179 3.019960 -5.216942
H -4.183053 3.336659 -6.940232
H 0.751218 5.891674 -3.334635
H 3.040706 6.709142 -3.169236
H 4.837770 5.214194 -2.500433
H 3.942591 1.689171 -0.441447
H 4.738245 0.551591 -1.579169
H 6.328547 -0.170046 0.191376
H 8.693305 0.134022 0.932579
H 10.477943 3.764851 -1.007148
H 12.558135 4.668205 -0.286933
H 15.052013 4.446886 0.376812
H 15.425312 5.492687 1.750304
H 14.013541 5.829647 0.797091
H 15.235943 4.353710 3.610709
H 14.797890 2.689469 3.245004
H 13.685236 3.774492 4.128154
H 12.308411 2.290237 3.308993
H 10.178588 1.397565 2.590546
H 8.434897 4.271700 -0.337527
H 6.194133 3.943527 -1.027186
H 6.481499 4.302490 -3.226318
H 8.241727 2.659847 -3.974356
H 7.456963 2.597235 -5.538389
H 9.163626 4.379245 -5.603894
H 8.544726 5.035857 -4.085575
H 7.749115 6.526517 -5.737347
H 7.329730 5.200572 -6.847808
H 5.260741 6.069472 -6.032870
H 5.821518 6.121945 -4.388759
H 5.551208 3.564489 -6.033304
H 4.319326 4.067519 -4.955850
H 2.100930 1.941432 -2.131769
C -5.986087 5.116647 -3.007522
O -5.358439 5.608790 -1.829625
C -4.002258 5.755401 -2.000467
O -3.520488 6.389509 -2.948514
C -3.222938 5.159172 -0.817681
C -3.669154 5.307681 0.507284
C -4.641668 6.438449 0.696874
C -3.983782 7.641124 0.700860
C -4.683883 8.811784 0.763708
C -6.073615 8.759647 0.805406
C -6.813030 7.587064 0.677429
N -8.254638 7.655705 0.598338
C -8.786352 8.966305 0.192604
C -8.398533 9.303877 -1.240707
C -7.893751 10.574730 -1.576561
C -7.462990 10.835487 -2.898393
C -7.544919 9.842450 -3.882179
C -7.117468 10.016631 -5.276078
C -7.408056 11.165717 -6.015179
C -7.111520 11.199874 -7.400651
C -6.537515 10.111015 -8.087861
N -6.283150 10.109598 -9.474393
C -6.275250 11.377438 -10.162936
C -5.278102 9.156847 -9.941716
C -6.271009 8.979025 -7.313967
C -6.523737 8.939782 -5.949398
C -8.061966 8.586741 -3.518692
C -8.499016 8.325625 -2.233649
C -9.054962 6.503846 0.419238
O -8.635053 5.395943 0.071824
C -10.536164 6.682092 0.707503
C -11.063394 5.347170 1.234760
C -12.346337 5.615155 1.994227
C -13.167653 6.682541 1.272626
C -12.891079 6.708681 -0.228298
C -11.420583 7.002858 -0.529729
C -6.067758 6.388554 0.690802
H -5.437503 4.278869 -3.514585
H -6.153088 5.934535 -3.726374
H -6.974606 4.682317 -2.758249
H -2.904184 7.685167 0.655773
H -4.161512 9.742197 0.831188
H -6.525772 9.719284 0.970028
H -8.470011 9.727471 0.911196
H -9.858208 8.972170 0.277647
H -7.791042 11.364522 -0.821268
H -7.042692 11.817337 -3.135280
H -7.892096 12.033986 -5.552227
H -7.358687 12.126171 -7.924467
H -6.211554 11.215942 -11.238787
H -5.420520 11.988093 -9.858624
H -7.199654 11.940224 -10.015460
H -5.734886 8.168682 -10.065614
H -4.868370 9.462753 -10.915436
H -4.433950 9.098576 -9.238306
H -5.861829 8.072774 -7.738754
H -6.273663 8.025875 -5.407854
H -8.123218 7.775099 -4.224391
H -8.860157 7.324583 -2.010790
H -10.650479 7.456217 1.491893
H -11.271746 4.685809 0.376713
H -10.332210 4.815667 1.852778
H -12.923382 4.698109 2.091012
H -12.098463 5.945038 3.006636
H -14.231162 6.530280 1.452039
H -12.917993 7.668339 1.694731
H -13.508246 7.460843 -0.724760
H -13.140521 5.740433 -0.657419
H -11.307399 8.035967 -0.878000
H -11.068381 6.379775 -1.366671
H -6.574467 5.435209 0.544914
C -6.569414 0.162794 3.428010
O -5.567948 1.125981 3.729982
C -4.631707 1.390447 2.713266
O -4.607249 0.991056 1.581336
C -3.548029 2.284328 3.342056
C -2.848894 1.571637 4.348256
C -1.959902 2.107794 5.601110
C -1.617065 1.010946 6.463922
C -1.056542 1.112026 7.710245
C -0.652793 2.347191 8.118924
C -0.786715 3.495602 7.291407
N 0.070110 4.617564 7.511267
C 1.509331 4.310371 7.330648
C 2.313028 3.704560 8.485693
C 3.527937 3.085932 8.152681
C 4.207213 2.367863 9.115122
C 3.739149 2.228474 10.440710
C 4.368321 1.262218 11.357892
C 4.951561 0.109892 10.826567
C 5.416460 -0.902133 11.632663
C 5.349057 -0.854652 13.035623
N 5.745927 -1.945364 13.795191
C 5.932040 -1.890047 15.230047
C 6.401700 -3.045394 13.109218
C 4.836999 0.336624 13.563895
C 4.358778 1.392619 12.748506
C 2.595061 2.937111 10.802381
C 1.903061 3.690880 9.841421
C -0.201305 5.478513 8.632752
O -1.090493 5.263241 9.418342
C 0.696845 6.820957 8.749203
C 0.326148 7.498347 10.071916
C 1.042389 8.863295 10.143605
C 2.526723 8.648027 10.410536
C 2.945207 7.246071 9.964074
C 2.268453 6.967781 8.630919
C -1.500190 3.382489 6.040448
H -6.470837 -0.390658 2.489388
H -6.608538 -0.525627 4.264657
H -7.497678 0.742379 3.447412
H -1.862682 -0.029182 6.251186
H -0.929128 0.217518 8.288415
H -0.177261 2.398275 9.078296
H 1.540068 3.533044 6.567468
H 1.944235 5.176343 6.841820
H 3.889222 3.091594 7.122936
H 5.109221 1.848029 8.784593
H 4.978950 -0.057220 9.740078
H 5.789193 -1.767829 11.094181
H 5.563888 -0.988387 15.705256
H 5.394307 -2.725220 15.693814
H 6.994626 -1.983711 15.466171
H 7.347036 -2.714338 12.651409
H 6.639528 -3.848781 13.800256
H 5.763882 -3.488067 12.335141
H 4.740267 0.483595 14.634924
H 3.942905 2.282157 13.234848
H 2.171871 2.866562 11.788062
H 0.983550 4.154317 10.184722
H 0.319301 7.422441 7.902658
H -0.740189 7.592251 10.222693
H 0.644801 6.886785 10.922747
H 0.602688 9.481969 10.923393
H 0.902657 9.406136 9.189484
H 2.727669 8.788761 11.479673
H 3.103264 9.384581 9.859792
H 4.026828 7.167177 9.822212
H 2.704244 6.495519 10.744448
H 2.798212 6.208177 8.102072
H 2.401335 7.852507 8.014710
H -1.600942 4.249401 5.374387
C -5.176313 -2.205892 0.777331
O -4.297796 -1.611312 1.746720
C -3.297835 -2.483274 2.036509
O -3.291368 -3.664795 1.701123
C -2.300092 -1.826680 2.981888
C -0.990423 -2.401452 3.158171
C -0.772572 -3.752368 2.573172
C -0.683803 -3.940256 1.183839
C -0.823246 -5.206563 0.663314
C -0.910667 -6.305489 1.523408
C -0.708737 -6.135366 2.923201
N -0.714760 -7.322858 3.730821
C 0.514604 -8.050597 3.776815
C 0.672554 -9.023558 2.612050
C 1.118047 -8.542685 1.383310
C 1.058038 -9.336700 0.256483
C 0.651451 -10.686321 0.309097
C 0.487035 -11.376259 -0.979310
C -0.161878 -10.683223 -2.029986
C -0.287648 -11.238241 -3.281998
C 0.207868 -12.500971 -3.603838
N 0.084004 -13.034418 -4.911281
C -0.320420 -12.108276 -5.965058
C 1.106470 -13.994963 -5.316291
C 0.812697 -13.221396 -2.548718
C 0.953429 -12.658371 -1.241954
C 0.372540 -11.232150 1.555865
C 0.374278 -10.416896 2.700129
C -1.802275 -7.352360 4.662245
O -2.624585 -6.383686 4.662047
C -2.006521 -8.470091 5.685347
C -3.521996 -8.375045 6.067270
C -3.863514 -9.164450 7.327806
C -2.808929 -10.217998 7.629332
C -2.474328 -10.910493 6.317674
C -1.780772 -9.936536 5.343801
C -0.684229 -4.858646 3.437253
H -6.002065 -2.761256 1.248919
H -4.669295 -2.873769 0.052567
H -5.637257 -1.401099 0.229200
H -0.826459 -3.071405 0.508850
H -0.970335 -5.344904 -0.415880
H -1.085865 -7.290056 1.107298
H 0.642592 -8.592922 4.714521
H 1.346548 -7.336285 3.753348
H 1.405386 -7.496443 1.265714
H 1.286070 -8.890284 -0.701414
H -0.539891 -9.685723 -1.851115
H -0.798158 -10.597530 -4.019264
H -1.281295 -11.622732 -5.759614
H 0.442658 -11.342678 -6.119638
H -0.459433 -12.645461 -6.901013
H 0.789262 -15.014075 -5.098157
H 2.064090 -13.795143 -4.841855
H 1.283926 -13.935573 -6.389650
H 1.173256 -14.219222 -2.703397
H 1.458263 -13.253277 -0.473702
H 0.067757 -12.272504 1.649962
H 0.123142 -10.859268 3.658954
H -1.452696 -8.184307 6.582074
H -4.132336 -8.766726 5.231481
H -3.897744 -7.346258 6.212081
H -4.041609 -8.507305 8.182236
H -4.801173 -9.700421 7.152746
H -1.908514 -9.779029 8.077735
H -3.201986 -10.949242 8.347188
H -1.861540 -11.790248 6.471629
H -3.422256 -11.245483 5.852416
H -0.714271 -10.121053 5.416874
H -2.088795 -10.146866 4.321167
H -0.670788 -4.681657 4.518096
C 1.299884 -1.711108 7.586155
O 1.177086 -1.910619 6.204147
C 2.403666 -2.112162 5.694868
O 3.425883 -1.893219 6.339636
C 2.379528 -2.489301 4.217071
C 3.481982 -3.259200 3.738769
C 4.106997 -4.099361 4.820173
C 5.373855 -3.716240 5.255089
C 5.896589 -4.297840 6.395098
C 5.137234 -5.208982 7.105132
C 3.817537 -5.542656 6.750059
N 3.104806 -6.464183 7.583345
C 3.296024 -6.258390 9.045619
C 2.046965 -5.808975 9.814964
C 1.719426 -6.420576 11.016482
C 0.503268 -6.081763 11.594486
C -0.356530 -5.137031 11.005733
C -1.661161 -4.850513 11.585518
C -2.203558 -3.568444 11.526965
C -3.466933 -3.323176 12.049160
C -4.232474 -4.324495 12.651077
N -5.488450 -4.048630 13.208123
C -5.924985 -2.664581 13.304850
C -6.313736 -5.046704 13.833830
C -3.672958 -5.614789 12.677799
C -2.406235 -5.873498 12.153229
C 0.043292 -4.500698 9.843333
C 1.255693 -4.801036 9.241180
C 1.829757 -6.972239 7.171032
O 0.967206 -6.421800 6.517993
C 1.617217 -8.490449 7.435581
C 2.713321 -9.307863 6.788576
C 2.193911 -10.724637 6.539297
C 1.254129 -11.225803 7.647180
C 1.473279 -10.520204 8.977228
C 1.435101 -8.991008 8.877005
C 3.329830 -5.056467 5.544103
H 2.103621 -2.316771 8.036030
H 0.355139 -2.002412 8.045828
H 1.481408 -0.664584 7.826086
H 5.961668 -2.957051 4.720435
H 6.890635 -4.046877 6.737829
H 5.597125 -5.668681 7.960846
H 3.764190 -7.184316 9.431091
H 4.021402 -5.454784 9.247181
H 2.352611 -7.189359 11.464374
H 0.236262 -6.575347 12.509782
H -1.657956 -2.735543 11.076592
H -3.829837 -2.306146 11.969653
H -5.970007 -2.183527 12.324020
H -5.255736 -2.108583 13.961617
H -6.922567 -2.613611 13.726481
H -6.559226 -4.750799 14.849001
H -7.236972 -5.172766 13.272513
H -5.869744 -6.042620 13.919457
H -4.176134 -6.474231 13.086317
H -2.029902 -6.888011 12.188018
H -0.589586 -3.792370 9.341648
H 1.522730 -4.347640 8.288340
H 0.672446 -8.739208 6.927312
H 3.574554 -9.310452 7.469379
H 3.045949 -8.871691 5.855645
H 1.651696 -10.744055 5.577493
H 3.019232 -11.436811 6.412766
H 0.211157 -11.080393 7.337913
H 1.380096 -12.322320 7.765089
H 0.736525 -10.867007 9.709120
H 2.468377 -10.800663 9.348085
H 2.249840 -8.628821 9.510137
H 0.498993 -8.606735 9.305922
H 2.263686 -5.169040 5.232324
C 4.500228 -8.890292 1.952783
O 4.873729 -7.600059 1.457813
C 4.510679 -6.587647 2.300055
O 3.369881 -6.426157 2.735819
C 5.617133 -5.593545 2.542388
C 6.957727 -6.019524 2.636902
C 7.306035 -7.431334 2.469670
C 7.554036 -7.955251 1.209705
C 8.075244 -9.228720 1.138130
C 8.282071 -9.983756 2.308007
C 7.908481 -9.440940 3.540660
N 7.793656 -10.258510 4.677345
C 6.481873 -10.906996 4.766835
C 6.041756 -11.446364 6.083313
C 5.993275 -12.839579 6.241756
C 5.546789 -13.373152 7.447797
C 5.115453 -12.520887 8.464048
C 4.220254 -13.023520 9.518469
C 3.273511 -13.995097 9.190996
C 2.200839 -14.263789 10.033690
C 2.012616 -13.576306 11.230806
N 0.893846 -13.813777 12.039962
C 0.768262 -13.069692 13.285881
C -0.368325 -14.236061 11.448824
C 3.072464 -12.730059 11.628151
C 4.164855 -12.450559 10.783202
C 5.369043 -11.149167 8.372174
C 5.843319 -10.601848 7.187265
C 8.845607 -10.809354 5.402120
O 8.635089 -11.533767 6.400794
C 10.330375 -10.647868 5.063334
C 11.126375 -11.139078 6.304894
C 12.603847 -11.078828 6.002109
C 13.036844 -9.650343 5.695609
C 11.863810 -8.687436 5.525772
C 10.807927 -9.277170 4.612595
C 7.400147 -8.165908 3.636795
H 5.389474 -9.500998 1.991400
H 3.832085 -9.381306 1.247876
H 4.091116 -8.846150 2.960191
H 7.441744 -7.348524 0.281325
H 8.357219 -9.635223 0.171207
H 8.657285 -10.970833 2.238387
H 6.479669 -11.705602 4.041536
H 5.716248 -10.187254 4.465854
H 6.279765 -13.491764 5.431474
H 5.410876 -14.456254 7.497372
H 3.286173 -14.471693 8.214864
H 1.494433 -14.993800 9.667122
H 1.413368 -13.515214 14.043025
H 0.996247 -12.006466 13.176017
H -0.251132 -13.115927 13.661064
H -1.019898 -13.374007 11.284682
H -0.286678 -14.764143 10.499470
H -0.873488 -14.930029 12.129911
H 3.046392 -12.187744 12.579876
H 4.898589 -11.702008 11.098903
H 5.050534 -10.473232 9.158700
H 5.968006 -9.510992 7.096696
H 10.530281 -11.391127 4.273780
H 10.876128 -10.532292 7.194767
H 10.849658 -12.174178 6.578735
H 13.183341 -11.497129 6.829006
H 12.791529 -11.721087 5.132796
H 13.695125 -9.292328 6.491891
H 13.617143 -9.653765 4.769966
H 12.220752 -7.755383 5.081828
H 11.432426 -8.434885 6.504600
H 9.996194 -8.561030 4.521026
H 11.248885 -9.397605 3.625925
H 7.105840 -7.697714 4.602156
C -4.619334 -4.276996 -2.764646
O -4.758465 -3.673506 -4.075273
C -4.270464 -2.401048 -4.173869
O -3.613158 -1.830594 -3.304836
C -4.726812 -1.788588 -5.468630
C -4.156943 -0.571070 -5.897764
C -5.050746 0.325653 -6.766754
C -6.319850 0.593562 -6.181903
C -7.286132 1.286022 -6.825846
C -6.993069 1.770638 -8.080889
C -5.745634 1.628278 -8.721444
N -5.626277 2.249987 -10.011632
C -4.555405 1.945779 -10.933306
C -3.367938 2.892387 -10.881931
C -3.278845 3.984565 -9.987906
C -2.143325 4.794501 -9.981752
C -1.077891 4.563125 -10.864508
C 0.192648 5.276096 -10.735321
C 0.970452 5.578140 -11.861678
C 2.285015 6.051030 -11.692864
C 2.852505 6.300910 -10.440508
N 4.131382 6.807625 -10.263999
C 4.585469 7.095227 -8.922440
C 5.061396 7.013877 -11.343733
C 2.008778 6.067827 -9.342626
C 0.708971 5.573950 -9.476514
C -1.211376 3.524592 -11.806934
C -2.335755 2.694683 -11.820994
C -6.439293 3.381179 -10.273876
O -6.787924 4.170065 -9.386113
C -6.958764 3.566248 -11.710931
C -6.113221 4.526967 -12.550594
C -6.252365 5.945530 -12.041036
C -7.710735 6.406101 -12.004979
C -8.708031 5.323316 -12.378976
C -8.425328 4.009649 -11.654952
C -4.754997 0.857505 -8.063580
H -3.592921 -4.156541 -2.371609
H -4.813533 -5.331751 -2.899354
H -5.378306 -3.883563 -2.059330
H -6.580716 0.114254 -5.257507
H -8.259560 1.443443 -6.364290
H -7.790178 2.356585 -8.519114
H -4.203787 0.903685 -10.829447
H -4.961989 2.010426 -11.940391
H -4.056931 4.193250 -9.239519
H -2.059070 5.577794 -9.229571
H 0.627569 5.387779 -12.880744
H 2.856590 6.199858 -12.590839
H 5.601983 7.468707 -8.919125
H 3.967820 7.872803 -8.457075
H 4.587523 6.200396 -8.290999
H 4.592062 7.152924 -12.305275
H 5.756661 6.172261 -11.417070
H 5.631180 7.926160 -11.161759
H 2.313625 6.223160 -8.311988
H 0.123778 5.328277 -8.588644
H -0.392976 3.280522 -12.478080
H -2.392869 1.856642 -12.519125
H -6.945292 2.570016 -12.208590
H -6.491833 4.473463 -13.571391
H -5.063220 4.246478 -12.598049
H -5.667924 6.619648 -12.676895
H -5.811026 6.037080 -11.032487
H -7.948479 6.748889 -10.990969
H -7.842845 7.274632 -12.664366
H -9.723430 5.668305 -12.119845
H -8.701230 5.158684 -13.469937
H -9.047573 3.220321 -12.083415
H -8.779464 4.129998 -10.623193
H -3.749079 0.651967 -8.493225
C -0.276620 -1.500722 -1.958764
O -1.060977 -0.603100 -2.728684
C -0.296227 0.427451 -3.186759
O 0.899076 0.653666 -2.971850
C -0.859558 1.034270 -4.400695
C -0.498840 2.256481 -4.836508
C -0.299922 2.418313 -6.325694
C -1.330168 2.125663 -7.258186
C -1.044935 1.895794 -8.591596
C 0.241106 2.002029 -9.024490
C 1.297504 2.329118 -8.173382
N 2.637199 2.128848 -8.658141
C 3.670566 2.293887 -7.654922
C 5.040546 1.787802 -7.949363
C 5.987542 2.686158 -8.454827
C 7.313076 2.296698 -8.543000
C 7.728819 1.012697 -8.157380
C 9.165790 0.694432 -8.109125
C 10.103129 1.420814 -8.846126
C 11.483892 1.271760 -8.638179
C 11.999796 0.369940 -7.706827
N 13.362753 0.266843 -7.439352
C 14.384711 0.827737 -8.290373
C 13.837643 -0.781751 -6.557147
C 11.045628 -0.405248 -7.024340
C 9.669716 -0.257157 -7.218063
C 6.745550 0.087780 -7.771839
C 5.405687 0.466506 -7.654599
C 2.871067 2.240929 -10.046158
O 2.302993 3.033372 -10.786292
C 3.546988 1.026083 -10.685088
C 2.504027 0.017012 -11.178888
C 3.180097 -1.186602 -11.833800
C 4.212671 -0.792711 -12.878460
C 5.166150 0.281518 -12.375587
C 4.351863 1.475460 -11.921946
C 1.001440 2.641610 -6.840833
H -0.929296 -1.993619 -1.240286
H 0.176933 -2.279201 -2.586228
H 0.522043 -1.009895 -1.387243
H -2.331250 1.943521 -6.910187
H -1.835767 1.542804 -9.222097
H 0.399750 1.765450 -10.060883
H 3.714475 3.359392 -7.404841
H 3.352730 1.755273 -6.754321
H 5.712092 3.718887 -8.672534
H 8.022634 3.054255 -8.827810
H 9.790042 2.159682 -9.586661
H 12.121807 1.937776 -9.226922
H 14.044571 1.560242 -9.030978
H 14.890475 0.029052 -8.836792
H 15.126625 1.351142 -7.686253
H 14.935064 -0.797892 -6.515158
H 13.514552 -1.771094 -6.913299
H 13.488155 -0.615774 -5.528637
H 11.341551 -1.148830 -6.277629
H 8.998107 -0.853890 -6.600838
H 7.009593 -0.936505 -7.500602
H 4.673243 -0.258585 -7.282562
H 4.202199 0.518980 -9.967586
H 1.846046 0.482043 -11.918209
H 1.856944 -0.300167 -10.372330
H 3.662973 -1.786283 -11.049039
H 2.398747 -1.816675 -12.297773
H 3.694408 -0.405121 -13.753542
H 4.784445 -1.675729 -13.172358
H 5.860936 0.573042 -13.156455
H 5.759728 -0.095462 -11.532436
H 4.974499 2.347172 -11.692472
H 3.678382 1.798806 -12.729837
H 1.751421 2.878377 -6.082209
C -0.200823 3.350680 2.022892
O -0.903093 3.728469 0.755716
C -0.544574 3.041298 -0.413571
O 0.204459 2.112786 -0.536995
C -1.148398 3.861993 -1.522298
C -1.764836 5.045513 -1.094509
C -1.005227 6.329927 -1.074066
C -0.567414 6.686463 0.217063
C -0.098647 7.960642 0.431937
C -0.083719 8.867399 -0.631008
C -0.568572 8.560257 -1.894917
N -0.731239 9.621054 -2.833961
C -1.867218 9.544047 -3.765476
C -1.479133 9.245201 -5.196983
C -2.338501 9.652293 -6.220780
C -1.885967 9.572671 -7.540850
C -0.620347 9.067083 -7.870163
C -0.183127 9.065008 -9.259708
C -1.101877 8.887151 -10.304339
C -0.694233 8.984467 -11.635114
C 0.645214 9.207612 -12.009421
N 1.020036 9.311423 -13.377001
C 0.063803 8.717217 -14.296731
C 2.408518 9.090072 -13.732141
C 1.539217 9.384185 -10.957083
C 1.148761 9.315666 -9.606795
C 0.198182 8.603433 -6.827795
C -0.238800 8.668102 -5.507357
C 0.314480 10.544664 -2.927487
O 1.389596 10.433705 -2.315140
C 0.088175 11.775460 -3.806815
C 1.463781 12.190282 -4.373812
C 2.221873 13.131006 -3.430322
C 1.430304 14.408452 -3.178381
C -0.052615 14.223777 -3.475823
C -0.543983 12.880984 -2.957631
C -1.038258 7.257308 -2.139275
H -0.021279 4.307503 2.465559
H 0.767817 2.823982 1.892396
H -0.855438 2.800834 2.687838
H -0.726184 6.011162 1.041531
H 0.147203 8.266623 1.429673
H 0.277606 9.872126 -0.389285
H -2.314409 10.538247 -3.715655
H -2.648222 8.854364 -3.411673
H -3.325392 10.086005 -6.028622
H -2.542355 9.944056 -8.310578
H -2.150026 8.686374 -10.099358
H -1.484748 8.864345 -12.375698
H -0.784022 9.389284 -14.451656
H 0.512388 8.557934 -15.280125
H -0.299911 7.736323 -13.965752
H 2.577402 9.469216 -14.745291
H 3.114265 9.622300 -13.094579
H 2.634514 8.021052 -13.743144
H 2.600752 9.545738 -11.122012
H 1.906282 9.466336 -8.827473
H 1.182237 8.177827 -7.002742
H 0.441094 8.348116 -4.711590
H -0.553570 11.583460 -4.669831
H 1.321029 12.688056 -5.336715
H 2.094068 11.303896 -4.585674
H 3.193464 13.376009 -3.871842
H 2.441507 12.652200 -2.469615
H 1.577066 14.743036 -2.149390
H 1.825149 15.198190 -3.818933
H -0.640030 15.040793 -3.056787
H -0.208682 14.245494 -4.557802
H -0.286726 12.744508 -1.908222
H -1.628666 12.803642 -3.034110
H -1.403851 6.953228 -3.135729
C -7.258013 3.224367 2.065019
O -5.942861 3.760453 2.101616
C -5.127178 3.444459 1.091606
O -5.375308 2.840829 0.096503
C -3.809606 4.011679 1.434864
C -3.382324 3.793389 2.768582
C -3.603680 4.923169 3.751682
C -4.437237 4.690071 4.857839
C -4.798420 5.727691 5.688786
C -4.347676 7.035564 5.405824
C -3.504536 7.280662 4.306885
N -2.804838 8.497840 4.089979
C -1.466248 8.583237 4.665341
C -1.573740 8.952405 6.153335
C -1.927305 7.916441 7.002558
C -2.410168 8.171687 8.262619
C -2.414644 9.478319 8.777809
C -2.767185 9.611298 10.192924
C -3.799047 8.790158 10.709665
C -3.983228 8.621391 12.074497
C -3.184723 9.274068 13.015734
N -3.344075 9.052289 14.375379
C -2.676135 9.824367 15.399984
C -4.184429 7.953214 14.849586
C -2.246426 10.183821 12.492043
C -2.043351 10.361592 11.105959
C -2.012705 10.538621 7.942953
C -1.616626 10.277615 6.614035
C -3.264406 9.759540 3.725658
O -2.457100 10.629184 3.397516
C -4.721380 10.179918 3.805246
C -5.143681 10.489205 5.251828
C -6.327091 11.454301 5.352951
C -7.148038 11.406408 4.075428
C -6.315526 11.999576 2.948955
C -4.865359 11.562250 3.062947
C -3.071089 6.195213 3.538432
H -7.954657 4.035970 1.876190
H -7.418248 2.405493 1.356448
H -7.510159 2.865158 3.075224
H -4.874722 3.717509 5.061581
H -5.437731 5.552751 6.550250
H -4.562774 7.806561 6.133567
H -0.910072 7.644125 4.567979
H -0.842687 9.333714 4.163190
H -1.957119 6.893970 6.643102
H -2.675666 7.321350 8.860168
H -4.399073 8.185746 10.023229
H -4.765500 7.926666 12.375113
H -2.300243 10.780277 15.067253
H -3.384889 10.044389 16.194998
H -1.856089 9.244019 15.811587
H -4.090622 7.044099 14.250170
H -3.896089 7.662326 15.864866
H -5.235095 8.267760 14.888432
H -1.582462 10.748785 13.150393
H -1.234655 11.006334 10.767840
H -2.023353 11.579336 8.300555
H -1.383941 11.104619 5.956684
H -5.378260 9.421961 3.356510
H -5.414560 9.564644 5.741066
H -4.292385 10.919391 5.797267
H -5.953221 12.469666 5.504374
H -6.929766 11.205724 6.227830
H -8.069201 11.963308 4.204105
H -7.425552 10.370164 3.835639
H -6.348459 13.086522 3.030558
H -6.744815 11.723582 1.988529
H -4.349518 11.578557 2.100366
H -4.326318 12.314032 3.671154
H -2.390639 6.346926 2.698538
C -5.138520 1.268797 7.734767
O -4.496518 1.456407 6.493163
C -4.415120 0.218963 5.883635
O -5.021796 -0.761318 6.307001
C -3.367328 0.175944 4.676258
C -3.057749 -1.099901 4.152026
C -3.676911 -2.229309 4.849138
C -2.851954 -2.694881 5.870010
C -3.359079 -3.697111 6.617099
C -4.648488 -4.199311 6.345091
C -5.463781 -3.751680 5.281833
N -6.851891 -4.060052 5.190940
C -7.556755 -4.081519 6.496554
C -7.910345 -5.496008 6.925011
C -7.163090 -6.566238 6.391775
C -7.312731 -7.829333 6.851563
C -8.241163 -8.077743 7.864089
C -8.088837 -9.314297 8.634072
C -7.475214 -10.458335 8.118224
C -7.033075 -11.486891 8.969586
C -7.240746 -11.418355 10.356344
N -6.802051 -12.414583 11.237598
C -6.988219 -12.176136 12.661417
C -5.711311 -13.279222 10.852040
C -7.996900 -10.338749 10.809790
C -8.404925 -9.302836 9.995726
C -9.165533 -7.070671 8.205296
C -9.008207 -5.754527 7.745994
C -7.735892 -4.438526 4.187088
O -8.948734 -4.580771 4.467979
C -7.427183 -4.738154 2.731426
C -8.724705 -5.410386 2.127552
C -8.609970 -5.443605 0.627421
C -7.454890 -6.344065 0.268017
C -6.140370 -5.872936 0.869566
C -6.224280 -5.599041 2.375386
C -4.937940 -2.754453 4.479410
H -5.451266 2.234904 8.073535
H -6.030161 0.601195 7.682846
H -4.467167 0.847274 8.503955
H -1.872400 -2.271663 6.076189
H -2.771206 -4.104885 7.421463
H -4.975780 -5.009149 6.990477
H -6.968198 -3.645977 7.291920
H -8.439427 -3.445630 6.359447
H -6.365197 -6.399031 5.653267
H -6.592647 -8.543276 6.510763
H -7.236192 -10.525999 7.055553
H -6.511312 -12.312924 8.508719
H -6.519306 -12.946948 13.276724
H -8.059034 -12.206021 12.886507
H -6.570843 -11.214160 12.982581
H -4.822274 -12.730782 10.520965
H -5.407624 -13.922478 11.685523
H -6.017808 -13.967751 10.052523
H -8.249579 -10.210220 11.862154
H -8.892773 -8.433953 10.449293
H -9.942949 -7.255637 8.941075
H -9.671399 -4.970974 8.083020
H -7.372072 -3.764327 2.260079
H -8.876866 -6.422319 2.530783
H -9.620147 -4.845169 2.399200
H -8.455798 -4.436922 0.244868
H -9.531975 -5.821288 0.179297
H -7.354698 -6.391802 -0.813510
H -7.665828 -7.360164 0.628013
H -5.831204 -4.966441 0.361574
H -5.372308 -6.631922 0.704527
H -5.318163 -5.090896 2.714201
H -6.268623 -6.562080 2.905590
H -5.551018 -2.288557 3.695629
C -1.759428 0.514678 0.932226
O -1.010599 0.242022 2.106933
C 0.045181 -0.553360 1.903012
O 0.690907 -0.663772 0.877651
C 0.195200 -1.467948 3.045594
C 1.579109 -1.464371 3.424070
C 2.013934 -0.013665 3.785995
C 1.015215 0.808403 4.338474
C 1.298579 2.095716 4.581319
C 2.541716 2.617598 4.342280
C 3.497250 1.890397 3.681919
N 4.695915 2.528073 3.281578
C 4.513139 3.404867 2.100136
C 4.117243 4.872597 2.322477
C 5.011467 5.916644 2.046601
C 4.627758 7.273526 2.197540
C 3.316394 7.601279 2.575722
C 2.846310 8.985082 2.705509
C 3.064116 9.935904 1.705880
C 2.445021 11.184285 1.780423
C 1.610330 11.549184 2.836830
N 0.960523 12.783801 2.868439
C 1.248112 13.742750 1.817321
C 0.676615 13.319857 4.186621
C 1.455180 10.608670 3.856173
C 2.031046 9.342086 3.788479
C 2.424132 6.567425 2.836808
C 2.801496 5.244283 2.666126
C 5.753738 2.296812 4.164183
O 5.506313 1.745859 5.248237
C 7.253748 2.633002 3.842923
C 7.623263 3.960424 3.177300
C 7.561927 5.096364 4.196373
C 8.762278 4.971993 5.129240
C 9.187242 3.494898 5.291468
C 7.969148 2.582397 5.211849
C 3.274913 0.531351 3.463306
H -1.233480 0.354519 -0.006879
H -2.642349 -0.128049 0.932057
H -2.123658 1.520644 0.986791
H 0.024332 0.423138 4.537447
H 0.527811 2.703838 5.010292
H 2.743053 3.625740 4.654961
H 3.720122 2.948032 1.487647
H 5.419139 3.358442 1.521017
H 6.017179 5.733345 1.683903
H 5.363722 8.065073 1.988249
H 3.671123 9.688628 0.823744
H 2.653531 11.858883 0.953130
H 1.108534 13.309139 0.820843
H 2.272981 14.134187 1.910311
H 0.557196 14.588739 1.855293
H -0.200156 12.809987 4.613133
H 1.537805 13.210080 4.865783
H 0.400749 14.386434 4.150778
H 0.818462 10.808769 4.713801
H 1.819259 8.625413 4.578918
H 1.403684 6.758961 3.111163
H 2.052015 4.472459 2.784226
H 7.644401 1.794237 3.242506
H 7.056518 4.143049 2.284897
H 8.659624 3.899034 2.824418
H 6.621187 5.065557 4.776113
H 7.579572 6.052141 3.657934
H 8.510802 5.406064 6.097939
H 9.588731 5.569862 4.721155
H 9.702516 3.381147 6.260057
H 9.906047 3.231809 4.522478
H 7.297217 2.952529 5.991485
H 8.249314 1.565906 5.469238
H 4.066456 -0.086541 3.019026
C 3.425880 -2.216031 -1.078266
O 3.489509 -3.102203 0.044576
C 3.616924 -2.459438 1.244451
O 3.334371 -1.263040 1.441605
C 4.127731 -3.406211 2.313710
C 5.219386 -4.247268 1.949012
C 5.935537 -3.967975 0.682485
C 6.681864 -2.793910 0.649304
C 7.349180 -2.533479 -0.513587
C 7.216348 -3.400513 -1.622557
C 6.389207 -4.557135 -1.612297
N 6.269700 -5.378067 -2.796063
C 6.904215 -4.907317 -4.001640
C 6.006046 -5.112149 -5.231209
C 6.208312 -6.241534 -6.033235
C 5.456050 -6.407919 -7.174099
C 4.440366 -5.502551 -7.547997
C 3.633385 -5.765848 -8.774099
C 3.486322 -7.076788 -9.256460
C 2.752151 -7.361966 -10.410863
C 2.035926 -6.379163 -11.117227
N 1.319656 -6.741363 -12.266717
C 0.477240 -7.911876 -12.154072
C 0.665347 -5.663186 -12.968437
C 2.189971 -5.064442 -10.620730
C 2.978849 -4.755566 -9.476823
C 4.214157 -4.409914 -6.701791
C 4.978364 -4.205314 -5.544858
C 6.087842 -6.773540 -2.757961
O 6.979682 -7.518530 -3.175554
C 4.708299 -7.298570 -2.385394
C 4.500918 -8.713356 -2.994572
C 3.617457 -8.695312 -4.236483
C 2.221642 -8.153107 -3.910409
C 2.275572 -7.148384 -2.741615
C 3.564542 -6.367260 -2.834072
C 5.757866 -4.838603 -0.424939
H 2.795208 -2.725208 -1.818317
H 3.013373 -1.240404 -0.806300
H 4.441666 -2.132814 -1.526132
H 6.704930 -2.093724 1.472046
H 8.005316 -1.674680 -0.638656
H 7.872029 -3.132694 -2.447699
H 7.875081 -5.396765 -4.141870
H 7.084729 -3.843441 -4.028140
H 6.972331 -6.975231 -5.760460
H 5.702191 -7.268979 -7.772383
H 3.952343 -7.919198 -8.732564
H 2.789247 -8.386141 -10.767481
H -0.563551 -7.602310 -11.947922
H 0.525678 -8.433404 -13.121486
H 0.747464 -8.640385 -11.366983
H 1.405310 -4.879098 -13.252327
H 0.200322 -5.992005 -13.975906
H -0.161802 -5.228652 -12.341509
H 1.685044 -4.226742 -11.092558
H 3.088742 -3.697633 -9.209900
H 3.428799 -3.700784 -6.915052
H 4.788527 -3.334628 -4.897804
H 4.658070 -7.416584 -1.294502
H 4.000769 -9.349841 -2.253632
H 5.434300 -9.208665 -3.228066
H 3.528271 -9.701669 -4.664127
H 4.067167 -8.061688 -5.002350
H 1.535104 -8.974134 -3.659275
H 1.801076 -7.640477 -4.782345
H 1.390203 -6.491211 -2.722950
H 2.274252 -7.679394 -1.791441
H 3.527332 -5.458610 -2.237073
H 3.673685 -6.048725 -3.866827
H 5.056481 -5.668912 -0.326948
C 10.648698 -6.589752 0.571274
O 9.427236 -6.131899 1.112125
C 9.552635 -5.568982 2.338093
O 10.625633 -5.413816 2.932778
C 8.165156 -5.095826 2.854334
C 8.381407 -4.524540 4.026752
C 9.280555 -4.231599 5.157856
C 9.938974 -5.342605 5.696914
C 11.079552 -5.186558 6.451062
C 11.542242 -3.892695 6.711393
C 10.905588 -2.785565 6.135491
N 11.329059 -1.500976 6.574663
C 11.207867 -1.294417 8.021297
C 10.543932 0.019720 8.355160
C 11.322273 1.085203 8.809553
C 10.729539 2.301340 9.117066
C 9.333620 2.484887 9.008448
C 8.770889 3.839507 9.225269
C 7.563591 4.231594 8.635690
C 7.176294 5.580800 8.611540
C 7.943824 6.588620 9.210767
N 7.647636 7.943866 9.076057
C 8.299467 8.819241 10.019841
C 6.341272 8.403314 8.642667
C 9.071672 6.145219 9.914912
C 9.478066 4.814263 9.948282
C 8.558883 1.391334 8.596099
C 9.154666 0.175975 8.251487
C 12.378856 -0.803036 5.954558
O 12.999629 0.046844 6.613462
C 12.743812 -1.009249 4.444561
C 13.911097 -0.035458 4.125405
C 15.277267 -0.545714 4.565155
C 15.493281 -2.002975 4.167357
C 14.421259 -2.484643 3.202614
C 13.090820 -2.433492 3.928089
C 9.778114 -2.924215 5.330217
H 10.821503 -6.067848 -0.359397
H 11.548833 -6.459264 1.194112
H 10.617904 -7.652077 0.327448
H 9.644562 -6.346020 5.387147
H 11.577714 -6.045874 6.880012
H 12.386839 -3.759941 7.378559
H 12.190402 -1.336001 8.512805
H 10.594604 -2.074102 8.482079
H 12.401152 0.995163 8.874371
H 11.398464 3.115237 9.401742
H 6.972264 3.510558 8.064833
H 6.270212 5.791614 8.047224
H 8.032638 9.862307 9.843439
H 7.995934 8.582710 11.041513
H 9.389982 8.791439 9.929205
H 5.665705 8.402814 9.497020
H 5.922343 7.828728 7.822323
H 6.423468 9.430052 8.276488
H 9.732408 6.832937 10.420455
H 10.386021 4.577594 10.493978
H 7.482336 1.484102 8.489779
H 8.514577 -0.636330 7.906472
H 11.854596 -0.652385 3.883052
H 13.917806 0.145927 3.059822
H 13.730456 0.955050 4.563390
H 16.042845 0.086340 4.088946
H 15.417422 -0.422119 5.636856
H 15.443568 -2.616562 5.075794
H 16.485585 -2.136972 3.758570
H 14.614905 -3.516659 2.904481
H 14.402952 -1.887284 2.289595
H 13.144109 -3.140133 4.753583
H 12.299183 -2.763082 3.245726
H 9.279847 -2.045058 4.860308
