544
Molecule ID: homopoly_62414
C 6.416414 -1.618395 -10.614149
C 6.931772 -1.992145 -9.442541
C 6.541185 -1.323796 -8.181869
O 5.682664 -0.460336 -8.078888
O 7.308985 -1.837469 -7.194380
C 7.153583 -1.209669 -5.911573
C 7.851310 -2.068669 -4.863422
O 7.978873 -1.349257 -3.640060
C 8.453690 -2.160450 -2.563409
C 7.337692 -2.954881 -1.865281
O 6.378589 -2.163270 -1.151422
C 6.939580 -1.370828 -0.101389
C 5.869312 -1.066980 0.949726
O 5.151787 0.131633 0.622470
C 4.205921 0.461162 1.537156
O 3.886892 -0.203735 2.510712
C 3.593334 1.743332 1.299538
C 3.090747 2.925771 1.080428
H 6.710274 -2.113715 -11.534383
H 5.690804 -0.812394 -10.688359
H 7.657929 -2.793716 -9.371981
H 6.093562 -1.107564 -5.662304
H 7.599326 -0.210962 -5.946871
H 8.850238 -2.345575 -5.218540
H 7.284466 -2.994557 -4.722724
H 9.229995 -2.840277 -2.929676
H 8.938431 -1.480805 -1.855580
H 6.765904 -3.532281 -2.599322
H 7.780556 -3.670417 -1.161296
H 7.337986 -0.444015 -0.529301
H 7.743229 -1.936790 0.381953
H 6.366224 -0.907176 1.913290
H 5.165428 -1.901431 1.022161
H 3.677085 3.606713 0.475833
C 8.320544 5.436088 2.465804
C 9.162030 4.391780 2.434101
C 9.849216 3.932646 3.659731
O 9.739102 4.439524 4.762788
O 10.605261 2.861126 3.323071
C 11.210320 2.142662 4.411197
C 10.878020 0.658035 4.253372
O 9.470752 0.404463 4.309708
C 8.963523 0.341329 5.647323
C 7.443465 0.182621 5.611301
O 6.840507 1.448947 5.311066
C 5.421572 1.340584 5.215197
C 4.823093 2.682824 4.820475
O 3.409347 2.544519 4.615184
C 2.838827 3.649433 4.073114
O 3.400988 4.713796 3.847544
C 1.408228 3.420097 3.740330
C 0.584470 3.461952 4.819737
H 8.115955 5.968993 3.389155
H 7.806119 5.760225 1.568937
H 9.357049 3.847368 1.518987
H 12.292918 2.289303 4.341778
H 10.880249 2.510436 5.387056
H 11.404836 0.052914 4.999885
H 11.205167 0.327415 3.261365
H 9.230727 1.249662 6.195896
H 9.408718 -0.529560 6.141462
H 7.086869 -0.144863 6.594600
H 7.155531 -0.549789 4.848395
H 5.159328 0.587697 4.468846
H 5.007315 1.024981 6.179104
H 5.012325 3.420025 5.611231
H 5.311805 3.040871 3.904017
H 1.025730 3.496383 5.816092
C -4.890652 6.961881 7.500014
C -4.906940 7.536989 6.291186
C -3.865799 8.454229 5.776536
O -3.897994 8.900581 4.642075
O -2.931300 8.730746 6.717977
C -1.864446 9.572054 6.257913
C -0.941088 9.915845 7.429616
O -0.322421 8.789337 8.057027
C 0.601743 8.092037 7.218459
C 1.341603 7.033476 8.034923
O 0.458402 5.946900 8.315057
C 1.107539 4.893650 9.028181
C 0.101056 3.769369 9.237509
O -0.256015 3.238948 7.949218
C -1.327388 2.413719 7.972844
O -1.901939 2.027372 8.982493
C -1.725877 2.026222 6.576506
C -2.135913 0.741555 6.478150
H -4.085179 7.128418 8.208776
H -5.692029 6.297109 7.802849
H -5.718479 7.345903 5.597067
H -1.319209 9.053487 5.463689
H -2.283901 10.502152 5.855934
H -0.166650 10.621454 7.109990
H -1.532458 10.411245 8.209596
H 1.323664 8.807713 6.812843
H 0.056771 7.611994 6.404021
H 2.191533 6.659480 7.453342
H 1.698567 7.457225 8.980662
H 1.459172 5.265141 9.995728
H 1.956688 4.528527 8.440033
H -0.792894 4.166371 9.733692
H 0.544850 2.970203 9.839981
H -1.993220 0.123222 7.366917
C -2.858183 -1.287644 9.889107
C -1.989996 -2.302456 9.822527
C -0.552565 -2.064739 9.576803
O -0.069563 -1.035632 9.134366
O 0.114578 -3.188987 9.929113
C 1.523108 -3.177785 9.639019
C 1.999853 -4.619104 9.477801
O 1.354965 -5.169146 8.330873
C 1.786326 -6.497044 8.031040
C 0.900572 -7.054434 6.917243
O 1.248019 -6.469842 5.655916
C 0.128297 -5.894090 4.972464
C -0.045713 -4.424728 5.329222
O -1.406152 -3.981543 5.217358
C -1.748324 -3.364581 4.057641
O -1.168171 -3.430869 2.988654
C -2.864139 -2.402950 4.360996
C -4.088670 -2.569808 3.823738
H -3.917690 -1.463275 10.043669
H -2.540071 -0.255098 9.786803
H -2.307823 -3.331278 9.937915
H 2.042809 -2.691160 10.468880
H 1.710661 -2.634731 8.708347
H 1.728378 -5.210586 10.360011
H 3.085674 -4.637335 9.338164
H 2.835960 -6.466455 7.719302
H 1.683353 -7.119827 8.926889
H 1.068980 -8.132642 6.824376
H -0.155539 -6.887990 7.162535
H 0.341860 -5.968101 3.904757
H -0.780392 -6.471221 5.152705
H 0.625174 -3.805311 4.724835
H 0.236551 -4.237860 6.366755
H -4.881286 -1.894115 4.154697
C -10.628426 4.190185 -5.608756
C -10.737558 2.868747 -5.415018
C -9.833448 2.160664 -4.481499
O -8.935874 2.683287 -3.845192
O -10.200888 0.857889 -4.482265
C -9.403431 -0.016827 -3.669014
C -9.680370 -1.445000 -4.128437
O -8.882112 -2.394726 -3.423626
C -9.222797 -3.732308 -3.810354
C -8.254493 -4.748769 -3.204644
O -8.484337 -4.875188 -1.798463
C -7.889985 -6.062206 -1.261398
C -7.735828 -5.902286 0.248651
O -6.602760 -5.062145 0.522724
C -5.405595 -5.697800 0.598487
O -5.212448 -6.907301 0.569703
C -4.339893 -4.664001 0.542069
C -3.769557 -4.636146 -0.687160
H -11.294392 4.709336 -6.288273
H -9.879913 4.779365 -5.084845
H -11.484808 2.280158 -5.930296
H -9.693746 0.103544 -2.619816
H -8.338781 0.213199 -3.758375
H -9.474294 -1.525098 -5.201750
H -10.744848 -1.670309 -3.985532
H -9.178051 -3.808005 -4.904281
H -10.244587 -3.944220 -3.472930
H -8.419839 -5.720421 -3.686386
H -7.216376 -4.433631 -3.361427
H -8.560163 -6.898820 -1.483688
H -6.917654 -6.238221 -1.733246
H -8.610587 -5.405499 0.675314
H -7.627392 -6.873490 0.739265
H -4.054386 -5.389768 -1.425954
C -6.301083 -3.406097 10.622489
C -5.599267 -4.358079 9.996385
C -5.238863 -4.222569 8.569823
O -5.478957 -3.252691 7.869236
O -4.608596 -5.360956 8.194328
C -4.245240 -5.394070 6.808652
C -3.703468 -6.773598 6.468081
O -3.409667 -6.861169 5.074783
C -3.063000 -8.200561 4.699475
C -2.897220 -8.274778 3.184029
O -1.660011 -7.673076 2.778621
C -1.740351 -7.228014 1.422410
C -0.402060 -6.660147 0.950198
O -0.569932 -5.615648 -0.020371
C -0.998530 -5.996208 -1.244625
O -1.310639 -7.121630 -1.606653
C -0.942634 -4.814933 -2.149224
C 0.088904 -4.924636 -3.022806
H -6.567643 -3.508705 11.668425
H -6.627113 -2.506989 10.105356
H -5.278490 -5.257587 10.506984
H -3.483902 -4.634468 6.614854
H -5.119077 -5.171603 6.186957
H -2.800652 -6.979058 7.052878
H -4.448963 -7.524117 6.739992
H -2.141480 -8.495132 5.209859
H -3.875678 -8.871341 4.994791
H -3.746804 -7.772269 2.707160
H -2.870191 -9.320096 2.862389
H -2.509052 -6.456301 1.358224
H -2.035303 -8.071030 0.785149
H 0.150282 -6.220889 1.788675
H 0.240153 -7.458528 0.549413
H 0.713308 -5.818352 -2.970918
C -7.249353 -1.553989 -7.887039
C -6.648896 -0.360222 -7.931442
C -6.407931 0.409750 -6.694434
O -6.605731 -0.020809 -5.564967
O -5.939694 1.626297 -7.041652
C -5.572704 2.518586 -5.966840
C -4.403231 3.373897 -6.454880
O -3.125599 2.769468 -6.186073
C -2.139952 3.222409 -7.135475
C -0.714964 2.995345 -6.619214
O -0.146090 1.761263 -7.096851
C 1.190106 1.597529 -6.598686
C 1.892993 0.384581 -7.228799
O 1.216527 -0.887995 -7.144104
C 0.699796 -1.275726 -5.949514
O 0.822685 -0.665527 -4.905048
C -0.051729 -2.570862 -6.097463
C -0.919257 -2.728447 -7.129650
H -7.420215 -2.123556 -8.794421
H -7.564284 -1.995573 -6.944749
H -6.314683 0.079568 -8.865193
H -6.443264 3.158124 -5.786245
H -5.320534 1.983052 -5.044848
H -4.415339 4.328534 -5.930086
H -4.510958 3.547751 -7.526210
H -2.301349 2.706899 -8.085661
H -2.272227 4.299216 -7.280138
H -0.698367 3.004771 -5.522632
H -0.083261 3.808887 -6.995142
H 1.775279 2.491986 -6.846995
H 1.159571 1.524292 -5.508635
H 2.904725 0.269811 -6.826030
H 1.997132 0.575909 -8.303145
H -1.552655 -3.614711 -7.181853
C -4.937228 5.262991 -1.951660
C -4.974856 5.728732 -3.208778
C -3.801078 6.359974 -3.842750
O -2.707032 6.524951 -3.321065
O -4.158911 6.729538 -5.100239
C -3.080818 7.253053 -5.892509
C -3.585894 7.514220 -7.314016
O -3.896968 6.267490 -7.949203
C -4.302125 6.445514 -9.308932
C -4.779454 5.117568 -9.897546
O -3.664926 4.255090 -10.164546
C -4.090958 2.956410 -10.612674
C -2.974728 2.304973 -11.426889
O -2.045312 1.560918 -10.618227
C -2.283930 0.217428 -10.552372
O -3.318818 -0.342343 -10.902797
C -1.006100 -0.512613 -10.278081
C -0.094198 -0.306779 -11.264540
H -4.041634 5.336357 -1.339515
H -5.811597 4.785543 -1.518251
H -5.878081 5.645701 -3.798451
H -2.736137 8.188285 -5.442308
H -2.263699 6.521144 -5.915732
H -4.489889 8.129444 -7.279579
H -2.804995 8.028159 -7.885224
H -3.454104 6.834286 -9.882815
H -5.123235 7.172462 -9.340057
H -5.292111 5.320823 -10.846337
H -5.473037 4.622787 -9.208371
H -4.369500 2.349740 -9.745234
H -4.964861 3.075983 -11.263811
H -3.407357 1.662363 -12.203993
H -2.385315 3.074344 -11.940662
H -0.347316 0.414184 -12.047271
C 9.655861 1.941682 -3.712377
C 9.303517 3.168933 -4.118598
C 8.282869 3.358862 -5.170508
O 7.812241 2.469418 -5.861968
O 7.969733 4.677150 -5.206995
C 7.090451 5.082950 -6.278597
C 6.120457 6.144187 -5.765890
O 4.905896 5.519411 -5.324765
C 3.983819 6.493004 -4.816371
C 2.583560 5.898141 -4.683730
O 2.520178 4.936183 -3.628494
C 1.188024 4.799096 -3.120746
C 1.020768 3.443589 -2.448196
O 1.670736 3.415707 -1.163231
C 0.867756 3.337391 -0.072998
O -0.356821 3.349022 -0.100129
C 1.679055 3.215797 1.190742
C 0.979286 3.397238 2.337211
H 9.206446 1.048993 -4.139643
H 10.395372 1.799095 -2.933635
H 9.747126 4.059319 -3.685403
H 6.541529 4.238716 -6.711821
H 7.734429 5.524945 -7.042528
H 5.869183 6.820642 -6.589070
H 6.556485 6.715511 -4.936570
H 3.931371 7.342454 -5.508828
H 4.351288 6.845394 -3.847910
H 1.877604 6.712787 -4.494076
H 2.295684 5.391839 -5.610925
H 0.471758 4.867428 -3.945188
H 1.008375 5.610127 -2.408854
H -0.044291 3.216999 -2.363624
H 1.481695 2.663443 -3.058523
H -0.091112 3.535046 2.224517
C 5.724703 9.877803 -1.689189
C 5.437575 10.428287 -2.876636
C 4.088611 10.486342 -3.478832
O 3.907507 10.962519 -4.592347
O 3.143740 9.955597 -2.670118
C 1.810912 9.949601 -3.210834
C 1.025242 8.782803 -2.617794
O 0.492213 9.127506 -1.336654
C -0.328443 8.069942 -0.827626
C -1.058187 8.553408 0.422369
O -2.034960 7.619618 0.887416
C -1.465637 6.521256 1.598760
C -2.572919 5.777534 2.352194
O -2.083950 4.638451 3.075778
C -1.357393 4.930433 4.180721
O -1.083831 6.049550 4.587600
C -0.862659 3.675826 4.828055
C -1.820939 3.079450 5.575242
H 6.742585 9.866040 -1.315506
H 4.959325 9.426115 -1.065386
H 6.218058 10.870219 -3.485694
H 1.844461 9.820558 -4.298898
H 1.338026 10.906947 -2.964840
H 1.672070 7.908190 -2.507522
H 0.191727 8.548245 -3.289679
H 0.298592 7.200380 -0.598910
H -1.065826 7.764482 -1.578207
H -1.589644 9.482286 0.183865
H -0.348146 8.809609 1.220648
H -0.973113 5.840794 0.897536
H -0.701520 6.879095 2.295096
H -3.118332 6.451428 3.024290
H -3.313677 5.409664 1.631948
H -2.835516 3.479597 5.524873
C 6.528101 -5.157649 2.927207
C 5.503913 -4.372317 3.281925
C 5.126661 -4.183358 4.697330
O 5.562302 -4.818825 5.643019
O 4.231662 -3.173930 4.742862
C 3.605507 -2.951824 6.016008
C 2.898008 -1.600411 5.973156
O 1.912560 -1.626062 4.946936
C 1.179440 -0.410586 4.842566
C 0.581610 -0.344171 3.442112
O -0.517773 0.563537 3.395118
C -1.187276 0.499624 2.129386
C -2.586134 1.086660 2.255189
O -3.336009 0.204717 3.097554
C -3.535858 0.698052 4.340247
O -4.285094 1.631895 4.583507
C -2.733967 -0.022017 5.369823
C -2.530354 -1.360525 5.343939
H 6.783436 -5.291551 1.882183
H 7.118092 -5.686912 3.668216
H 4.901999 -3.853643 2.544759
H 2.880341 -3.755681 6.181273
H 4.352395 -2.949987 6.816947
H 3.622833 -0.817499 5.739568
H 2.426494 -1.382851 6.935370
H 0.400015 -0.411443 5.607735
H 1.818779 0.460033 5.015544
H 1.344068 -0.019872 2.728089
H 0.259481 -1.343901 3.138158
H -1.273262 -0.543576 1.803892
H -0.602122 1.063196 1.402558
H -3.080602 1.112256 1.281151
H -2.555989 2.101706 2.662963
H -1.919310 -1.771749 6.153933
C -2.802927 -6.509000 13.839559
C -3.768050 -7.094863 13.117923
C -3.474662 -7.637671 11.773757
O -2.383389 -7.622631 11.233969
O -4.633449 -8.124520 11.258363
C -4.511603 -8.635662 9.924786
C -5.902999 -8.882587 9.356711
O -5.807313 -9.218530 7.975895
C -7.095491 -9.372510 7.371239
C -6.988159 -9.194433 5.852756
O -6.844434 -7.798555 5.563650
C -6.983790 -7.510135 4.168877
C -7.074996 -6.000539 3.976641
O -5.820791 -5.453473 3.536723
C -5.915840 -4.136091 3.213163
O -6.929408 -3.452255 3.282334
C -4.586849 -3.565675 2.866760
C -3.998988 -3.787504 1.665811
H -3.010618 -6.108735 14.824968
H -1.786002 -6.418447 13.465196
H -4.783703 -7.178987 13.489375
H -3.969599 -7.926925 9.289109
H -3.944894 -9.573240 9.947542
H -6.506164 -7.976028 9.482985
H -6.398157 -9.689116 9.908698
H -7.464194 -10.376673 7.610060
H -7.790695 -8.625740 7.773648
H -7.905746 -9.569000 5.386571
H -6.123501 -9.736530 5.456493
H -6.150266 -7.949768 3.611575
H -7.924106 -7.952941 3.827273
H -7.836429 -5.786855 3.216966
H -7.355492 -5.507688 4.916185
H -3.081386 -3.225111 1.479953
C -6.264942 8.015799 1.883971
C -6.235345 6.686936 1.741630
C -6.991969 5.805807 2.652739
O -7.734009 6.183264 3.546486
O -6.715294 4.524618 2.318233
C -7.372640 3.546245 3.142241
C -6.896573 2.151755 2.739182
O -7.500224 1.762359 1.498626
C -6.529569 1.579178 0.466905
C -7.228388 1.146300 -0.817379
O -6.381813 1.144148 -1.962868
C -5.285463 0.234752 -1.935689
C -5.684882 -1.240025 -1.872979
O -4.607466 -2.163137 -2.126266
C -3.625692 -2.208651 -1.192565
O -3.414110 -1.381779 -0.319184
C -2.973209 -3.554497 -1.254764
C -1.810909 -3.650632 -1.938404
H -5.685340 8.655702 1.228051
H -6.847135 8.493118 2.666556
H -5.636911 6.216278 0.970177
H -7.115233 3.729004 4.193385
H -8.457020 3.632645 2.997781
H -7.217983 1.425731 3.490946
H -5.805687 2.128936 2.669007
H -5.813222 0.810104 0.774608
H -5.978112 2.510522 0.298563
H -7.712238 0.171382 -0.692818
H -8.045712 1.846581 -1.028743
H -4.725901 0.408216 -2.852801
H -4.606013 0.514226 -1.128226
H -6.134317 -1.485199 -0.903262
H -6.460495 -1.439388 -2.620438
H -1.417551 -2.733578 -2.379158
C 3.261766 7.528495 1.386300
C 4.186677 6.607334 1.094461
C 4.529754 6.306864 -0.311559
O 4.070226 6.890809 -1.276290
O 5.413662 5.277266 -0.324422
C 5.812431 4.852004 -1.640376
C 6.324976 3.407830 -1.585669
O 5.266209 2.448922 -1.516251
C 4.607376 2.201960 -2.768884
C 5.346985 1.197152 -3.662273
O 5.107828 -0.172732 -3.329105
C 3.794947 -0.618052 -3.643334
C 3.735636 -2.142290 -3.681030
O 2.358255 -2.497071 -3.846324
C 2.071797 -3.787815 -4.069323
O 2.869763 -4.710715 -4.192678
C 0.593037 -3.982862 -4.028243
C -0.232697 -3.489744 -4.968166
H 2.994581 7.727171 2.418739
H 2.749803 8.091471 0.611977
H 4.684974 6.039450 1.871773
H 4.974886 4.935521 -2.336189
H 6.623769 5.513942 -1.963825
H 6.952256 3.199771 -2.452845
H 6.932372 3.268212 -0.685868
H 3.609934 1.836322 -2.519888
H 4.485315 3.139213 -3.316039
H 5.065167 1.352092 -4.710880
H 6.426726 1.342926 -3.584525
H 3.081250 -0.242512 -2.901460
H 3.485451 -0.236118 -4.622224
H 4.132382 -2.568049 -2.753637
H 4.337628 -2.525999 -4.513212
H -1.277557 -3.803372 -4.881571
C 3.553798 -7.000483 -0.294929
C 3.224306 -5.829408 -0.849840
C 2.789230 -4.689738 -0.019247
O 2.686814 -4.718936 1.196617
O 2.582228 -3.627911 -0.832127
C 2.393197 -2.367441 -0.167050
C 0.928696 -1.942536 -0.153940
O 0.566713 -1.328253 -1.407279
C -0.383322 -0.280364 -1.197184
C -0.876587 0.396758 -2.474967
O -1.822700 -0.384392 -3.224575
C -2.361815 0.420558 -4.297474
C -3.346139 -0.366186 -5.160978
O -2.651265 -1.202216 -6.087144
C -2.461366 -0.756067 -7.361196
O -2.996762 0.201423 -7.881338
C -1.418447 -1.640987 -7.990420
C -0.846006 -1.473350 -9.193122
H 3.891830 -7.831419 -0.905186
H 3.496745 -7.153230 0.781501
H 3.300485 -5.672076 -1.918177
H 2.778656 -2.405401 0.858486
H 2.992427 -1.630127 -0.711101
H 0.263806 -2.790756 0.026618
H 0.808296 -1.219884 0.655355
H 0.118659 0.490150 -0.601007
H -1.224199 -0.676187 -0.629491
H -0.027802 0.644757 -3.112758
H -1.375555 1.325589 -2.177466
H -1.533118 0.792668 -4.907368
H -2.885150 1.272021 -3.844326
H -3.983625 0.316539 -5.702655
H -3.969457 -1.025240 -4.551929
H -0.053426 -2.190003 -9.381694
C 11.073979 -4.895477 -7.045582
C 10.823438 -4.745025 -5.738163
C 9.832933 -5.521301 -4.956792
O 9.631235 -5.296620 -3.777546
O 9.235704 -6.464001 -5.719442
C 8.208172 -7.242627 -5.076100
C 7.122494 -7.534085 -6.107580
O 6.395200 -6.326554 -6.357994
C 5.496382 -6.468511 -7.456710
C 4.750824 -5.157417 -7.673163
O 4.156765 -5.170353 -8.971269
C 3.493139 -3.940780 -9.258494
C 3.265637 -3.836079 -10.764409
O 2.859833 -2.498555 -11.092729
C 1.537474 -2.304239 -11.329783
O 0.691522 -3.182790 -11.389754
C 1.251279 -0.842881 -11.436163
C 2.174049 -0.040046 -11.893399
H 11.816238 -4.276019 -7.536440
H 10.552697 -5.623875 -7.656608
H 11.357856 -4.001248 -5.157341
H 8.666205 -8.178206 -4.740346
H 7.774167 -6.714181 -4.219762
H 6.429036 -8.289707 -5.724382
H 7.577978 -7.889359 -7.039440
H 4.783131 -7.277246 -7.262018
H 6.060127 -6.729571 -8.360639
H 5.454190 -4.320241 -7.596600
H 3.981331 -5.023351 -6.903436
H 4.091134 -3.086242 -8.920288
H 2.535760 -3.909200 -8.723307
H 2.554652 -4.598938 -11.107981
H 4.201980 -4.031233 -11.301164
H 2.941033 0.608118 -12.248104
