784
Molecule ID: homopoly_5702746
C 5.274402 -1.285379 4.628156
C 3.839276 -1.724444 4.802350
C 3.117065 -1.818462 3.442641
C 3.221761 -0.543889 2.648408
C 1.677987 -2.422707 3.579092
O 0.496127 -1.583430 3.478786
C 0.075517 -1.459419 2.189746
O 0.879324 -1.330182 1.276349
C -1.216788 -2.010872 1.873260
C -1.917047 -3.001247 1.339176
C -1.082875 -4.253069 1.445855
C -0.346771 -4.782602 0.383664
C 0.705961 -5.690260 0.610637
C 1.056928 -6.072041 1.902947
N 2.209845 -6.808859 2.170755
C 3.222428 -6.062492 2.480040
C 4.450946 -6.565865 3.148655
C 5.279059 -5.631736 3.795335
C 6.337065 -6.064817 4.602496
C 6.594476 -7.433193 4.743414
O 7.543569 -7.985291 5.542581
C 8.085674 -7.128596 6.548964
C 5.791983 -8.364080 4.054064
C 4.710947 -7.926595 3.274290
C 0.293984 -5.599337 2.958835
C -0.739371 -4.684929 2.735994
H 5.676378 -1.541770 3.644119
H 5.377723 -0.212637 4.791600
H 5.929604 -1.767491 5.344539
H 3.306265 -1.048829 5.469572
H 3.825247 -2.710768 5.277922
H 3.682285 -2.566877 2.889566
H 3.462051 -0.758516 1.596823
H 2.272756 -0.039452 2.685507
H 3.960448 0.174827 3.042115
H 1.599257 -2.964524 4.528337
H 1.620107 -3.180168 2.793591
H -0.516042 -4.407545 -0.619343
H 1.305813 -6.034846 -0.217395
H 3.178320 -4.963355 2.367903
H 5.061230 -4.565698 3.730011
H 6.926825 -5.309293 5.136314
H 8.784870 -7.712277 7.159264
H 8.667325 -6.301739 6.118401
H 7.308549 -6.741608 7.220647
H 5.993023 -9.431075 4.156488
H 4.056640 -8.659128 2.795007
H 0.548027 -5.891739 3.981793
H -1.206429 -4.241729 3.605463
C -3.041405 -8.468067 -6.760823
C -3.557888 -7.212000 -6.074547
C -3.991717 -7.454283 -4.612030
C -5.320607 -8.185481 -4.545141
C -4.150579 -6.123035 -3.869523
O -4.282019 -6.279931 -2.425631
C -3.250617 -5.702714 -1.738039
O -2.219867 -5.308208 -2.297117
C -3.612214 -5.209688 -0.356228
C -3.969934 -6.065492 0.639389
C -4.174942 -7.453370 0.158592
C -3.090630 -8.312902 -0.060056
C -3.327289 -9.554408 -0.629142
C -4.609947 -9.944228 -1.066820
N -4.722624 -11.084714 -1.880042
C -4.088085 -10.918989 -2.993846
C -3.772234 -11.945829 -4.000677
C -2.686586 -11.652137 -4.840627
C -2.259978 -12.594426 -5.774961
C -2.896348 -13.832158 -5.859696
O -2.511884 -14.842734 -6.689723
C -1.207116 -14.725386 -7.258053
C -4.003510 -14.086274 -5.034059
C -4.440772 -13.152474 -4.097096
C -5.693834 -9.108000 -0.779795
C -5.475393 -7.870505 -0.171462
H -2.263430 -8.939818 -6.144804
H -2.596906 -8.208122 -7.727962
H -3.840622 -9.197074 -6.939793
H -2.754364 -6.463557 -6.093756
H -4.384644 -6.787355 -6.650647
H -3.208458 -8.036557 -4.117165
H -5.628331 -8.330394 -3.513972
H -5.233373 -9.160405 -5.044537
H -6.111024 -7.615125 -5.059204
H -3.276132 -5.512898 -4.144268
H -5.018409 -5.556378 -4.234392
H -2.074007 -8.024976 0.200220
H -2.480449 -10.218730 -0.828296
H -3.630071 -9.946402 -3.214652
H -2.151261 -10.709918 -4.758257
H -1.424211 -12.334916 -6.413782
H -0.961235 -15.675726 -7.740813
H -0.448467 -14.533219 -6.490019
H -1.190216 -13.944369 -8.026820
H -4.519420 -15.042660 -5.118291
H -5.282228 -13.367013 -3.442347
H -6.689570 -9.392428 -1.097993
H -6.313563 -7.199244 0.000979
C 0.066660 -5.867666 7.570335
C -0.570645 -7.256939 7.684742
C -2.047666 -7.283458 7.296524
C -2.711845 -8.560694 7.822838
C -2.188380 -7.219747 5.769268
O -3.404042 -6.572239 5.323890
C -3.294910 -5.229894 5.141802
O -2.323512 -4.578126 5.498215
C -4.447158 -4.609338 4.376727
C -4.996095 -3.573428 5.142856
C -5.331803 -3.977311 6.595189
C -5.560056 -5.306170 6.988901
C -5.824108 -5.674547 8.313702
C -5.897406 -4.734559 9.315880
N -6.317430 -5.043224 10.613135
C -5.658875 -5.791872 11.445790
C -4.312446 -6.406222 11.371996
C -4.151156 -7.639819 12.021818
C -2.874671 -8.245436 12.075815
C -1.788968 -7.617643 11.503783
O -0.500272 -8.096398 11.428786
C -0.152556 -9.290439 12.118574
C -1.956800 -6.370551 10.892844
C -3.225391 -5.762577 10.816720
C -5.750814 -3.396050 8.950396
C -5.487829 -3.040177 7.620564
H 1.063455 -5.879904 8.006640
H 0.182467 -5.563328 6.522360
H -0.530158 -5.130560 8.095576
H -0.468577 -7.588217 8.724355
H 0.001778 -7.967644 7.090909
H -2.564424 -6.425636 7.748166
H -2.762775 -8.526463 8.902857
H -3.724468 -8.660627 7.442067
H -2.141558 -9.449230 7.525410
H -1.323214 -6.772248 5.277729
H -2.236771 -8.246044 5.399626
H -5.565238 -6.106267 6.255300
H -5.998192 -6.724645 8.548944
H -6.186766 -5.997752 12.391591
H -4.994838 -8.138736 12.467635
H -2.817386 -9.207688 12.577712
H -0.974627 -9.983105 12.284277
H 0.591826 -9.814335 11.516436
H 0.303805 -9.049545 13.084280
H -1.108065 -5.874149 10.446991
H -3.318999 -4.788818 10.344856
H -5.876451 -2.623380 9.694925
H -5.443771 -1.986789 7.416960
C -10.922382 3.729227 2.036021
C -9.553575 3.079922 2.146812
C -9.591669 1.820463 3.027530
C -9.561784 2.222261 4.484580
C -8.485148 0.817148 2.641860
O -7.163104 1.144372 3.114433
C -6.258870 0.166538 2.888077
O -6.475706 -0.851593 2.244636
C -5.008815 0.296303 3.684594
C -4.245538 1.452582 3.537351
C -3.221104 1.762158 4.582784
C -3.680338 2.442243 5.717590
C -2.841034 2.871267 6.700680
C -1.471725 2.602170 6.604733
N -0.773991 2.862037 7.771387
C 0.315732 3.553314 7.881666
C 0.829543 3.787296 9.249055
C 0.154442 3.188712 10.330345
C 0.570264 3.454852 11.632439
C 1.637594 4.300099 11.872510
O 1.911565 4.497392 13.200662
C 2.651682 5.664617 13.552430
C 2.334826 4.865419 10.790602
C 1.919954 4.602335 9.478714
C -0.978555 1.914329 5.485751
C -1.857242 1.507168 4.458425
H -10.842801 4.701755 1.543983
H -11.397897 3.870197 3.009686
H -11.575051 3.102913 1.423491
H -9.228825 2.824525 1.131000
H -8.838663 3.806758 2.557259
H -10.535287 1.306323 2.831108
H -9.484371 1.360196 5.138985
H -10.467101 2.767152 4.765300
H -8.722881 2.874997 4.713599
H -8.434499 0.740051 1.550192
H -8.769478 -0.164941 3.007854
H -4.748860 2.590303 5.850320
H -3.223833 3.362249 7.593306
H 0.851369 4.013457 7.019196
H -0.686074 2.511895 10.157258
H 0.040067 2.987715 12.466451
H 2.384373 5.929862 14.580688
H 2.410404 6.523692 12.914526
H 3.722409 5.443834 13.519620
H 3.193230 5.503587 10.945765
H 2.459278 5.056778 8.641035
H 0.072939 1.666238 5.448758
H -1.464017 0.967112 3.607237
C -7.610416 3.633841 -4.908183
C -6.251084 3.105819 -4.487557
C -5.759350 3.712334 -3.165820
C -5.438317 5.194990 -3.309737
C -4.523375 2.950775 -2.645922
O -4.358844 3.234071 -1.245545
C -3.278925 2.650116 -0.674802
O -2.564963 1.828058 -1.232234
C -2.979756 3.274529 0.667101
C -1.792448 4.023410 0.664170
C -1.333931 4.925209 1.800996
C -0.392747 5.946968 1.597355
C 0.031803 6.787603 2.610004
C -0.494737 6.685278 3.899222
N -0.129367 7.577768 4.916442
C -0.439721 8.836808 4.866124
C -1.239785 9.614131 3.880567
C -2.313224 9.066912 3.175581
C -3.005898 9.853941 2.256371
C -2.670676 11.191974 2.052878
O -3.446864 11.836436 1.128716
C -3.145005 13.204025 0.872399
C -1.619425 11.742848 2.783220
C -0.911736 10.961240 3.702801
C -1.350535 5.624822 4.151964
C -1.739866 4.755850 3.133933
H -7.576956 4.706849 -5.156687
H -7.937507 3.114685 -5.807509
H -8.356720 3.465319 -4.120323
H -5.516787 3.294565 -5.284898
H -6.336781 2.026541 -4.374176
H -6.568016 3.643461 -2.428481
H -4.635658 5.343691 -4.035066
H -6.310358 5.747599 -3.667039
H -5.136474 5.626888 -2.353408
H -3.626178 3.248885 -3.194833
H -4.660497 1.870910 -2.780632
H 0.072031 6.109121 0.632189
H 0.784976 7.540634 2.420029
H -0.017711 9.450835 5.684415
H -2.632461 8.043694 3.323121
H -3.828938 9.422204 1.694621
H -3.312211 13.820517 1.760809
H -3.835535 13.556363 0.100622
H -2.120782 13.326590 0.504182
H -1.323834 12.780375 2.661792
H -0.087624 11.406059 4.255024
H -1.718692 5.456873 5.168685
H -2.363888 3.923876 3.409079
C -0.494978 7.352180 -7.592326
C 0.161790 7.558050 -6.234346
C -0.123701 6.456000 -5.189932
C -1.462108 5.735858 -5.374736
C 1.049184 5.480552 -5.112500
O 0.795592 4.411993 -4.184918
C 1.338648 4.495657 -2.946241
O 1.966699 5.429926 -2.485094
C 0.991331 3.241132 -2.204712
C 1.560539 2.087373 -2.656603
C 0.816515 0.794848 -2.401077
C 1.200163 -0.097509 -1.409802
C 0.882648 -1.457569 -1.534093
C 0.174164 -1.961850 -2.626099
N 0.127990 -3.355572 -2.790535
C 0.196055 -3.838261 -4.008724
C 0.303481 -5.288099 -4.292459
C 0.360418 -5.717633 -5.618432
C 0.555607 -7.079340 -5.893593
C 0.691378 -8.010862 -4.867035
O 0.900313 -9.303224 -5.276801
C 1.346390 -10.229215 -4.275895
C 0.594697 -7.581396 -3.548127
C 0.419150 -6.224417 -3.262668
C -0.403493 -1.018460 -3.481296
C -0.081053 0.329999 -3.374134
H -0.210487 6.392376 -8.014158
H -1.583554 7.371565 -7.489960
H -0.207909 8.139416 -8.295273
H -0.178948 8.521881 -5.826021
H 1.251203 7.680336 -6.370193
H -0.168464 6.951438 -4.213962
H -2.250626 6.478111 -5.388783
H -1.650011 5.048871 -4.548080
H -1.477247 5.157964 -6.305116
H 1.141774 5.017448 -6.096968
H 1.991485 5.992931 -4.891980
H 1.865816 0.216201 -0.606844
H 1.302698 -2.167909 -0.823443
H 0.232057 -3.177392 -4.898169
H 0.266704 -5.011237 -6.434691
H 0.606848 -7.405614 -6.933336
H 0.512551 -10.528236 -3.624884
H 2.155862 -9.821957 -3.666992
H 1.736197 -11.112112 -4.792891
H 0.637523 -8.271155 -2.717874
H 0.348401 -5.899788 -2.231441
H -1.033637 -1.349057 -4.302934
H -0.476726 1.014674 -4.116573
C 7.931783 -2.452961 -7.429560
C 7.087830 -1.388649 -8.085620
C 5.575881 -1.665363 -8.016379
C 5.224184 -3.012377 -8.665836
C 4.955872 -1.630529 -6.611050
O 5.541077 -0.760492 -5.636055
C 5.140087 0.537794 -5.657983
O 4.668828 1.076902 -6.644602
C 5.218736 1.247847 -4.309263
C 6.452205 1.401208 -3.748183
C 7.546610 0.445639 -4.154693
C 7.738775 -0.724811 -3.404859
C 8.815714 -1.584901 -3.667859
C 9.718625 -1.281280 -4.679708
N 10.721109 -2.159536 -5.104449
C 11.694217 -2.625491 -4.383880
C 12.132385 -2.374260 -2.998223
C 11.933673 -1.173073 -2.320253
C 12.488883 -0.981692 -1.048478
C 13.232780 -1.996560 -0.437802
O 13.834675 -1.938973 0.785084
C 13.324443 -1.022054 1.768159
C 13.449390 -3.183611 -1.136021
C 12.908852 -3.377687 -2.400566
C 9.487070 -0.137440 -5.463983
C 8.378098 0.690613 -5.207968
H 7.902983 -3.399741 -7.972529
H 7.629723 -2.638553 -6.387804
H 8.977102 -2.140190 -7.421802
H 7.292315 -0.411427 -7.649836
H 7.381250 -1.325949 -9.142067
H 5.095808 -0.886041 -8.615199
H 5.650705 -3.852818 -8.113492
H 4.148210 -3.172054 -8.689375
H 5.610545 -3.067613 -9.690736
H 3.913541 -1.331060 -6.742156
H 4.932130 -2.630830 -6.168187
H 7.051377 -1.001832 -2.604419
H 8.931479 -2.484740 -3.085817
H 12.314983 -3.366998 -4.915230
H 11.429053 -0.349726 -2.810429
H 12.379013 0.005172 -0.615839
H 14.061383 -0.213722 1.897938
H 13.256713 -1.556722 2.719746
H 12.359870 -0.573257 1.535244
H 14.120999 -3.947631 -0.714394
H 13.138640 -4.292865 -2.955912
H 10.159809 0.096912 -6.280235
H 8.217412 1.552838 -5.858281
C 9.402754 7.910483 -7.962035
C 10.781674 7.263384 -7.936934
C 11.073013 6.442468 -6.651070
C 10.850498 7.288237 -5.374600
C 10.228419 5.162311 -6.620441
O 9.289391 5.146077 -5.518268
C 9.106401 4.030156 -4.783617
O 9.855184 3.067129 -4.766375
C 7.825404 4.156369 -3.987191
C 6.878614 5.091614 -4.361664
C 6.122632 5.778265 -3.277650
C 5.119951 5.155659 -2.563028
C 4.690907 5.722562 -1.345766
C 5.171018 6.950909 -0.892484
N 4.860891 7.433314 0.397662
C 5.699979 7.021656 1.304244
C 5.685203 7.488349 2.702720
C 6.794340 7.222195 3.507164
C 6.841737 7.706902 4.814585
C 5.778598 8.455313 5.331717
O 5.911004 8.857365 6.632157
C 5.406251 10.151650 6.963356
C 4.650301 8.671947 4.533305
C 4.600818 8.207506 3.218178
C 6.061193 7.657582 -1.690505
C 6.560817 7.058782 -2.861176
H 9.102510 8.180084 -8.984084
H 8.651740 7.243445 -7.534862
H 9.407615 8.830043 -7.368784
H 11.548939 8.041802 -8.037782
H 10.855894 6.603090 -8.807866
H 12.130151 6.175708 -6.675866
H 9.785628 7.445583 -5.174236
H 11.322228 8.269171 -5.456894
H 11.292159 6.760485 -4.514763
H 9.569032 5.221810 -7.515452
H 10.758415 4.177685 -6.752211
H 4.733500 4.184706 -2.848363
H 4.019402 5.153195 -0.718518
H 6.506302 6.314424 1.050558
H 7.637896 6.652675 3.120751
H 7.721071 7.520534 5.431368
H 6.249403 10.849148 6.977867
H 4.957859 10.110804 7.967255
H 4.635667 10.520534 6.278782
H 3.781333 9.197918 4.925366
H 3.728306 8.389649 2.605121
H 6.470563 8.604945 -1.361573
H 7.369629 7.561195 -3.373974
C -9.437856 -1.088334 -0.769348
C -7.959077 -1.284185 -0.502839
C -7.018066 -0.351386 -1.274419
C -7.593416 1.028220 -1.470739
C -5.517520 -0.329137 -0.817727
O -5.034723 -1.352847 0.060742
C -3.686212 -1.355418 0.332812
O -3.037527 -0.327685 0.458915
C -3.119993 -2.780645 0.445506
C -3.704460 -3.717256 -0.356532
C -4.387034 -3.241482 -1.638870
C -5.693692 -3.619221 -1.937130
C -6.273151 -3.231513 -3.141219
C -5.537409 -2.515420 -4.096857
N -6.251041 -2.054423 -5.216447
C -6.020215 -0.854937 -5.644490
C -6.878881 -0.230123 -6.671312
C -8.207635 -0.626636 -6.797224
C -9.074150 0.084569 -7.655070
C -8.600348 1.177497 -8.383871
O -9.550307 1.810571 -9.145637
C -9.224708 3.109306 -9.638226
C -7.255174 1.542162 -8.293991
C -6.392482 0.846574 -7.417251
C -4.189384 -2.259496 -3.858332
C -3.617764 -2.606711 -2.628988
H -9.648276 -0.927629 -1.839048
H -10.014264 -1.957472 -0.406852
H -9.798529 -0.215681 -0.211640
H -7.703610 -2.307967 -0.759003
H -7.799460 -1.171873 0.553716
H -7.015017 -0.745070 -2.315530
H -6.827412 1.718237 -1.810329
H -8.345536 0.999209 -2.263369
H -8.074704 1.418324 -0.583150
H -5.058325 -0.635100 -1.761266
H -5.023096 0.656126 -0.861343
H -6.272488 -4.200899 -1.235634
H -7.305132 -3.499845 -3.345541
H -5.212135 -0.216182 -5.250042
H -8.596967 -1.464096 -6.216739
H -10.120455 -0.213943 -7.725496
H -10.160060 3.594219 -9.921619
H -8.759785 3.735463 -8.871131
H -8.584593 3.035990 -10.523828
H -6.848880 2.366886 -8.873058
H -5.356402 1.160587 -7.339752
H -3.560919 -1.778732 -4.604518
H -2.575218 -2.387853 -2.425294
C -6.796599 -10.654582 2.877191
C -6.446863 -9.844057 4.117724
C -4.956040 -9.801167 4.491290
C -4.458534 -11.182140 4.907017
C -4.064822 -9.223641 3.374553
O -4.401355 -7.848340 3.149247
C -3.376528 -7.033427 2.799528
O -2.197612 -7.350917 2.771313
C -3.950090 -5.807554 2.136048
C -4.693910 -4.949046 2.903848
C -6.124737 -5.036675 2.457944
C -6.715372 -4.234169 1.476175
C -8.053072 -4.454779 1.108940
C -8.821709 -5.465651 1.674120
N -10.209689 -5.560934 1.510655
C -10.883646 -5.878448 0.467203
C -10.575112 -6.284617 -0.926575
C -9.296077 -6.457919 -1.458012
C -9.141653 -6.840836 -2.806728
C -10.251662 -7.051649 -3.627017
O -10.244958 -7.404923 -4.949862
C -8.979208 -7.525741 -5.592451
C -11.518388 -6.885006 -3.083735
C -11.689090 -6.506084 -1.750890
C -8.230246 -6.260678 2.636768
C -6.917570 -6.038829 3.033791
H -7.877297 -10.772664 2.811003
H -6.432985 -10.166242 1.965279
H -6.348016 -11.652042 2.908819
H -6.828290 -8.833184 3.987876
H -6.993424 -10.271170 4.962278
H -4.891363 -9.140568 5.366252
H -5.200929 -11.719608 5.499101
H -3.551930 -11.091568 5.509604
H -4.221952 -11.803508 4.037915
H -4.224655 -9.769745 2.437271
H -3.010899 -9.337245 3.651271
H -6.178090 -3.397692 1.051531
H -8.545337 -3.785198 0.415651
H -11.975076 -5.851979 0.653762
H -8.418362 -6.324208 -0.853557
H -8.128701 -6.967885 -3.184753
H -8.437108 -8.402782 -5.207691
H -9.173578 -7.683444 -6.653859
H -8.382533 -6.624318 -5.485664
H -12.397578 -7.067107 -3.710434
H -12.704349 -6.396244 -1.368911
H -8.831973 -7.013402 3.145133
H -6.511812 -6.647677 3.843782
C -11.718742 -2.232365 6.755537
C -10.504349 -3.144869 6.633542
C -9.139764 -2.439036 6.711515
C -8.961748 -1.693233 8.034088
C -8.936587 -1.460639 5.535311
O -7.540646 -1.216475 5.281402
C -6.987853 -2.217324 4.533169
O -7.626730 -3.157394 4.077081
C -5.486063 -2.220081 4.616296
C -4.703429 -1.057702 4.509639
C -3.591186 -1.062941 5.509285
C -3.830353 -0.432778 6.742549
C -2.859366 -0.376779 7.741345
C -1.605117 -0.931915 7.513746
N -0.539843 -0.662013 8.376377
C -0.364327 -1.336108 9.449548
C 0.769470 -0.965111 10.330380
C 1.043294 -1.666639 11.500380
C 2.140853 -1.275846 12.286447
C 2.953449 -0.192136 11.917230
O 4.016540 0.045186 12.748929
C 4.800182 1.223105 12.542007
C 2.654398 0.506372 10.757611
C 1.579922 0.111889 9.955312
C -1.370508 -1.574890 6.302407
C -2.356112 -1.654944 5.310424
H -12.616629 -2.806548 6.530624
H -11.815881 -1.825757 7.765793
H -11.671205 -1.400806 6.047970
H -10.554104 -3.905202 7.418056
H -10.567107 -3.671123 5.679516
H -8.372735 -3.216844 6.658598
H -9.062891 -2.381831 8.876085
H -9.715204 -0.908618 8.138710
H -7.979513 -1.215520 8.085443
H -9.437523 -1.818166 4.621027
H -9.420495 -0.515875 5.790241
H -4.777375 0.069827 6.917907
H -3.042479 0.186592 8.645406
H -1.014283 -2.178149 9.769909
H 0.430378 -2.509207 11.808005
H 2.364983 -1.820984 13.201165
H 4.370132 2.061224 13.097604
H 5.804453 1.011074 12.926616
H 4.924895 1.495597 11.490564
H 3.227706 1.363902 10.423554
H 1.370932 0.664764 9.039713
H -0.391978 -2.009516 6.111145
H -2.132117 -2.170914 4.384603
C -4.748342 8.715579 5.912534
C -5.643349 7.593117 6.404253
C -5.185812 6.194700 5.960436
C -5.812207 5.192777 6.924808
C -5.613765 5.920504 4.515475
O -4.842089 4.846861 3.902034
C -5.492911 3.671287 3.639514
O -6.561601 3.370781 4.138599
C -4.622827 2.750401 2.756183
C -4.162889 3.429814 1.637023
C -5.129274 4.481912 1.145687
C -6.383707 4.043435 0.686871
C -7.343860 4.970254 0.298624
C -7.120913 6.333863 0.435576
N -8.195393 7.208417 0.240176
C -9.067314 7.165939 1.197790
C -10.367462 7.849514 1.135721
C -10.789851 8.517695 -0.025554
C -12.052526 9.089936 -0.078570
C -12.923058 9.017275 1.010733
O -14.175819 9.565578 1.091939
C -14.864286 9.808972 -0.135260
C -12.492459 8.366123 2.172938
C -11.226784 7.771163 2.243970
C -5.851007 6.776290 0.823063
C -4.861766 5.851622 1.169341
H -4.647547 8.715982 4.821228
H -5.212290 9.669660 6.167561
H -3.762494 8.666499 6.382875
H -5.674806 7.647594 7.502400
H -6.677488 7.772982 6.061684
H -4.095049 6.106836 6.027835
H -5.237839 5.159399 7.850751
H -6.858474 5.443053 7.143477
H -5.818020 4.180722 6.526788
H -5.408405 6.794874 3.890048
H -6.690380 5.731107 4.445985
H -6.614657 2.979265 0.624264
H -8.306402 4.625015 -0.068616
H -8.889287 6.558177 2.103074
H -10.117327 8.580376 -0.877739
H -12.333111 9.608050 -0.991639
H -15.127148 8.859843 -0.605505
H -15.788632 10.340955 0.114147
H -14.297259 10.440393 -0.825381
H -13.161251 8.304023 3.030344
H -10.927275 7.252191 3.149371
H -5.652206 7.842552 0.887906
H -3.884654 6.220630 1.498626
C 1.851449 9.816144 -0.787628
C 0.761851 8.758249 -0.679444
C -0.042102 8.585809 -1.980637
C -0.686269 9.891812 -2.441987
C -1.136578 7.510036 -1.829812
O -0.554213 6.212864 -1.558312
C -1.434765 5.182987 -1.583509
O -2.575125 5.241053 -2.025041
C -0.945168 4.100029 -0.658174
C 0.180512 3.373597 -0.915987
C 0.910042 3.035864 0.359479
C 0.472433 2.069781 1.245313
C 1.043641 2.026604 2.525547
C 2.085895 2.881317 2.929751
N 2.649705 2.599723 4.181626
C 3.620857 3.292901 4.698656
C 4.286240 2.785457 5.917613
C 5.507715 3.346419 6.323751
C 6.236557 2.725754 7.341138
C 5.760826 1.562815 7.958095
O 6.595975 0.999140 8.888996
C 6.334921 -0.369273 9.213379
C 4.509960 1.066514 7.597265
C 3.773470 1.679340 6.585606
C 2.516050 3.847082 2.028918
C 1.929194 3.925145 0.759525
H 2.428273 9.690924 -1.706212
H 1.423245 10.822523 -0.791036
H 2.530366 9.755284 0.059544
H 0.087131 9.004429 0.149532
H 1.246006 7.803683 -0.435021
H 0.681587 8.267506 -2.743672
H -1.184033 9.760689 -3.411033
H -1.434985 10.227123 -1.715916
H 0.038202 10.698013 -2.562567
H -1.794797 7.774291 -1.005058
H -1.738438 7.459520 -2.743283
H -0.323816 1.369241 0.972769
H 0.714267 1.262438 3.222786
H 4.042719 4.210277 4.247477
H 5.910023 4.214793 5.811955
H 7.202115 3.132643 7.624608
H 5.493943 -0.439292 9.913581
H 6.136500 -0.970103 8.316305
H 7.227535 -0.774602 9.699977
H 4.095767 0.175100 8.061428
H 2.824338 1.241410 6.275306
H 3.290027 4.565349 2.276605
H 2.214433 4.743916 0.106827
C 0.206196 0.849465 -9.211453
C 1.477111 1.380372 -8.580257
C 1.301754 2.742671 -7.859874
C 0.757741 3.777862 -8.845339
C 2.656078 3.207077 -7.248810
O 2.963462 3.049617 -5.835272
C 2.328690 2.103972 -5.110921
O 1.396497 1.420762 -5.527755
C 2.764739 2.020024 -3.672518
C 3.905985 1.263590 -3.491802
C 3.716287 -0.152594 -2.968767
C 3.231654 -1.132575 -3.865910
C 3.436509 -2.480537 -3.649816
C 4.078337 -2.905837 -2.501346
N 4.630030 -4.179874 -2.310407
C 4.238453 -5.215958 -2.996010
C 5.016896 -6.470026 -2.928346
C 4.585269 -7.602144 -3.621025
C 5.387277 -8.758027 -3.620920
C 6.611222 -8.783916 -2.949047
O 7.302460 -9.960358 -3.041039
C 8.660220 -9.942155 -2.586517
C 7.032397 -7.654399 -2.255536
C 6.237738 -6.498604 -2.244451
C 4.382559 -1.950638 -1.529845
C 4.251331 -0.575547 -1.765474
H -0.116074 1.453336 -10.064561
H 0.364701 -0.177371 -9.564984
H -0.608016 0.797403 -8.481096
H 2.235929 1.485736 -9.360646
H 1.841208 0.637286 -7.862719
H 0.536752 2.659198 -7.087571
H -0.322676 3.638628 -8.988911
H 0.873486 4.768138 -8.411109
H 1.251085 3.744196 -9.823728
H 3.468502 2.722983 -7.803541
H 2.769586 4.280633 -7.426745
H 2.769493 -0.821232 -4.799522
H 3.161966 -3.183754 -4.432605
H 3.381202 -5.208131 -3.691135
H 3.654444 -7.598888 -4.172615
H 5.053845 -9.639762 -4.162447
H 9.254638 -9.215624 -3.151130
H 9.082458 -10.937252 -2.764784
H 8.724709 -9.743157 -1.508671
H 7.972500 -7.624426 -1.708580
H 6.591449 -5.603702 -1.714984
H 4.775835 -2.292975 -0.580916
H 4.564990 0.127116 -1.012284
C 9.694396 -2.240983 1.346267
C 9.211271 -0.869737 0.885165
C 7.758788 -0.600297 1.305028
C 6.845500 -1.753758 0.893453
C 7.224816 0.738480 0.730723
O 7.247200 0.779608 -0.715655
C 6.574293 1.870393 -1.180093
O 5.874587 2.604030 -0.486819
C 6.894154 2.249156 -2.586345
C 7.731214 3.352254 -2.710588
C 8.573945 3.738770 -1.520661
C 9.552817 2.887846 -0.957388
C 10.263754 3.249708 0.211427
C 10.038395 4.471115 0.815688
N 10.632091 5.027830 1.949056
C 11.206706 4.381952 2.918555
C 11.664223 5.194259 4.072915
C 11.393392 6.565671 4.101064
C 11.781926 7.350855 5.183601
C 12.460992 6.774776 6.257930
O 12.908248 7.441740 7.362492
C 12.729207 8.857298 7.368541
C 12.716623 5.394179 6.230050
C 12.318887 4.599940 5.145150
C 9.117035 5.336405 0.233271
C 8.390129 4.957816 -0.900482
H 9.423415 -2.992183 0.597729
H 9.237532 -2.540090 2.296148
H 10.774614 -2.247743 1.470453
H 9.843033 -0.091218 1.335604
H 9.339533 -0.782860 -0.197688
H 7.701052 -0.549471 2.376671
H 6.922777 -1.947333 -0.179000
H 5.808092 -1.529939 1.156637
H 7.099735 -2.684258 1.392046
H 6.204326 0.875354 1.102235
H 7.847774 1.553446 1.129627
H 9.735180 1.912172 -1.406605
H 10.991505 2.561478 0.622027
H 11.339673 3.284592 2.953371
H 10.863026 7.041119 3.275608
H 11.542071 8.411604 5.159532
H 11.663119 9.122420 7.361080
H 13.160293 9.248999 8.295950
H 13.252358 9.331896 6.529177
H 13.242310 4.935026 7.073146
H 12.525784 3.532063 5.157045
H 8.953239 6.313651 0.661199
H 7.661965 5.661874 -1.241052
C 3.439343 10.896041 -8.072312
C 3.000692 9.560102 -8.654944
C 4.106623 8.483413 -8.636068
C 3.591740 7.220064 -9.343680
C 4.581744 8.197004 -7.203848
O 5.316693 6.967760 -7.098015
C 6.225385 6.962090 -6.085866
O 6.538022 7.964238 -5.445866
C 6.692577 5.571140 -5.766883
C 6.730465 4.720931 -6.759567
C 6.713023 3.881744 -7.917116
C 5.636777 3.978198 -8.783331
C 5.538137 3.149647 -9.898693
C 6.524888 2.190268 -10.141746
N 6.425081 1.241802 -11.169041
C 5.402538 0.444657 -11.101870
C 5.212879 -0.687834 -12.029921
C 6.178812 -0.982427 -13.000541
C 5.992779 -2.070180 -13.846268
C 4.857725 -2.885184 -13.743971
O 4.812892 -3.912747 -14.641746
C 3.615207 -4.692966 -14.691082
C 3.903803 -2.595898 -12.767062
C 4.077848 -1.503064 -11.911644
C 7.641556 2.150149 -9.310768
C 7.747455 3.000641 -8.198298
H 4.320264 11.289261 -8.592441
H 3.686033 10.810678 -7.012089
H 2.627819 11.624393 -8.161517
H 2.126053 9.207268 -8.100679
H 2.679238 9.730804 -9.690294
H 4.957937 8.842653 -9.215971
H 4.432816 6.572600 -9.593022
H 2.885661 6.664621 -8.721074
H 3.098435 7.468422 -10.285441
H 5.180882 9.050839 -6.878466
H 3.718657 8.106145 -6.526637
H 4.825822 4.674011 -8.570857
H 4.672593 3.212664 -10.550348
H 4.628505 0.561264 -10.317193
H 7.070795 -0.366220 -13.091102
H 6.744816 -2.297512 -14.602180
H 3.552842 -5.367601 -13.833203
H 2.716894 -4.068110 -14.775383
H 3.661813 -5.290369 -15.602691
H 3.014404 -3.208483 -12.640777
H 3.328219 -1.293121 -11.148563
H 8.422027 1.426687 -9.501603
H 8.621717 2.933628 -7.573962
