624
Molecule ID: homopoly_53495165
C 2.422922 -5.623481 14.360754
O 2.251807 -6.828881 13.623330
C 1.654967 -6.712520 12.398501
C 1.369354 -5.513489 11.734194
C 0.693255 -5.512616 10.504945
C 0.361028 -4.246880 9.856351
N -0.751968 -4.085436 9.064084
C -0.751867 -2.794399 8.811603
N 0.333234 -2.211162 9.387138
C 0.581812 -0.772718 9.577577
C 0.729114 0.359395 10.205867
C 0.188745 0.207852 11.586278
O 0.842625 -0.199716 12.540161
O -1.165203 0.332812 11.523068
C -1.885259 -0.529087 12.412954
C -2.127814 0.144758 13.759822
C -3.203448 -0.847176 11.710080
N 1.065343 -3.131172 10.042050
C 0.307125 -6.727983 9.934052
C 0.615622 -7.945425 10.575177
C 0.241744 -9.274820 9.967383
F -0.509001 -10.051676 10.802363
F -0.479489 -9.174016 8.814962
F 1.335635 -10.026699 9.652692
C 1.295951 -7.915558 11.799627
H 1.468474 -5.097435 14.507614
H 2.811349 -5.895832 15.346632
H 3.163633 -4.981164 13.870074
H 1.655015 -4.559785 12.165118
H -1.499479 -2.243634 8.246729
H -1.357917 -1.488609 12.546700
H -1.186968 0.404007 14.263460
H -2.676249 1.083864 13.630990
H -2.702835 -0.510897 14.417942
H -3.035791 -1.208595 10.685459
H -3.805612 0.058357 11.622178
H -3.766686 -1.603522 12.261613
H -0.245701 -6.733027 8.995940
H 1.532003 -8.852111 12.314612
C -5.212035 6.088165 6.236124
O -5.856412 5.254491 7.193578
C -5.036003 4.347619 7.809669
C -4.015140 3.632128 7.177628
C -3.235146 2.724359 7.904845
C -2.111180 2.042634 7.283494
N -2.023287 1.734105 5.955240
C -0.801441 1.286086 5.812913
N -0.123835 1.311672 7.019011
C 1.290738 1.138465 7.281785
C 2.155650 0.390777 6.529397
C 1.439345 -0.852906 6.004431
O 0.424466 -1.274424 6.534824
O 2.166410 -1.537294 5.099290
C 1.673714 -2.840733 4.667020
C 2.812196 -3.488154 3.895455
C 1.237593 -3.802188 5.782734
N -1.010973 1.724117 7.973204
C -3.503135 2.535238 9.270145
C -4.536439 3.242039 9.908996
C -4.827142 3.022731 11.373554
F -3.712197 2.808437 12.123362
F -5.467986 4.067085 11.969880
F -5.621039 1.936010 11.585089
C -5.310589 4.137127 9.161017
H -4.377163 6.634928 6.686895
H -5.949040 6.819444 5.895022
H -4.881875 5.528434 5.357343
H -3.809666 3.780015 6.125280
H -0.341010 0.975176 4.883120
H 0.826931 -2.657941 3.985530
H 3.560883 -3.939164 4.564930
H 3.352527 -2.751632 3.304531
H 2.435827 -4.278171 3.241681
H 0.215928 -3.593002 6.102032
H 1.231308 -4.832754 5.430539
H 1.889375 -3.722356 6.651602
H -2.898012 1.836048 9.852828
H -6.112807 4.696442 9.636644
C 7.397046 -4.694962 -2.238956
O 6.375494 -3.834156 -1.740404
C 6.831766 -2.584595 -1.425928
C 6.351550 -2.043120 -0.230022
C 6.785910 -0.787482 0.185326
C 6.484043 -0.318739 1.519627
N 7.505517 -0.154267 2.395254
C 6.905224 0.255717 3.474259
N 5.523392 0.313113 3.309906
C 4.663076 0.946869 4.278940
C 4.405744 2.289225 4.051218
C 4.194446 3.240187 5.205962
O 3.383434 4.152571 5.198859
O 5.232823 3.074326 6.082646
C 5.848955 4.294726 6.575372
C 5.117255 4.872480 7.768372
C 7.274306 3.947619 6.988859
N 5.269118 0.003335 2.008462
C 7.680966 -0.064588 -0.614722
C 8.146813 -0.590351 -1.831866
C 9.114618 0.199041 -2.676389
F 8.611883 1.404879 -3.050878
F 10.291041 0.457105 -2.041065
F 9.449442 -0.433725 -3.839550
C 7.700615 -1.854715 -2.225731
H 7.020514 -5.722342 -2.202709
H 7.626437 -4.456764 -3.284450
H 8.301550 -4.642364 -1.618730
H 5.702819 -2.635629 0.402821
H 7.409588 0.548786 4.385796
H 5.881540 5.034014 5.764038
H 5.660022 5.712726 8.191613
H 4.131413 5.220037 7.467292
H 5.003617 4.108809 8.534761
H 7.288364 3.340409 7.896993
H 7.780155 3.367786 6.218031
H 7.862399 4.851218 7.174766
H 8.059592 0.899296 -0.273147
H 8.039450 -2.260769 -3.178398
C 4.987039 10.567411 5.733727
O 4.712974 9.346228 5.057672
C 3.825389 9.395576 4.016792
C 3.647693 8.185269 3.342310
C 2.770824 8.079439 2.252807
C 2.581826 6.809345 1.562304
N 1.910372 6.717744 0.373084
C 2.021778 5.457404 0.068070
N 2.613321 4.740178 1.087725
C 2.795711 3.334100 1.203222
C 1.795292 2.436790 0.862237
C 1.860543 1.144416 1.598291
O 2.023141 1.089046 2.807393
O 1.595703 0.107620 0.770918
C 1.641376 -1.187640 1.384008
C 2.809024 -1.949264 0.787465
C 0.340986 -1.926394 1.146669
N 3.039189 5.642725 2.013957
C 2.071023 9.218418 1.836612
C 2.233829 10.441675 2.506882
C 1.431662 11.652224 2.097901
F 2.153145 12.809237 2.178330
F 0.955826 11.596707 0.825067
F 0.345221 11.845792 2.899446
C 3.111308 10.515343 3.600677
H 5.732602 10.359392 6.506287
H 4.090779 10.954322 6.233261
H 5.414310 11.314287 5.054357
H 4.209643 7.308714 3.669014
H 1.739272 4.998617 -0.865371
H 1.779503 -1.114758 2.459716
H 2.627672 -3.024588 0.753416
H 3.050202 -1.565661 -0.199762
H 3.698295 -1.794699 1.389103
H -0.510731 -1.348364 1.512448
H 0.339797 -2.894672 1.654306
H 0.197783 -2.116249 0.079981
H 1.378151 9.147985 0.998909
H 3.211958 11.470559 4.116767
C -8.640825 4.549387 0.834844
O -7.294973 4.216132 0.538455
C -7.052366 2.958462 0.066210
C -5.701822 2.606524 -0.002057
C -5.310868 1.348782 -0.465584
C -3.919725 0.947043 -0.531716
N -3.586172 -0.371616 -0.470925
C -2.298719 -0.361510 -0.630402
N -1.820416 0.905284 -0.902361
C -0.502229 1.279029 -1.369943
C 0.126684 0.641118 -2.407868
C 0.226240 -0.846362 -2.344959
O -0.719731 -1.596530 -2.521336
O 1.534896 -1.173062 -2.340212
C 1.834764 -2.552131 -2.580332
C 3.333529 -2.766044 -2.410523
C 1.429398 -2.974952 -3.979615
N -2.863574 1.772571 -0.683618
C -6.301852 0.441646 -0.885714
C -7.660443 0.785449 -0.845261
C -8.725288 -0.174204 -1.319943
F -8.250333 -1.386774 -1.715624
F -9.656461 -0.433332 -0.359054
F -9.431559 0.314016 -2.379652
C -8.027993 2.054311 -0.358277
H -9.230985 4.637433 -0.084556
H -9.088202 3.821480 1.523316
H -8.647160 5.525432 1.333751
H -4.946477 3.325135 0.319571
H -1.670881 -1.234721 -0.540969
H 1.274066 -3.116281 -1.842468
H 3.778802 -3.327891 -3.234591
H 3.872617 -1.819375 -2.307667
H 3.550688 -3.342647 -1.511179
H 1.817043 -3.965710 -4.206160
H 1.802096 -2.263984 -4.726059
H 0.344802 -3.019927 -4.089747
H -6.008558 -0.537973 -1.263394
H -9.084204 2.306902 -0.340280
C 1.492517 9.271769 -8.866062
O 1.778092 7.881358 -8.991877
C 2.405769 7.283193 -7.938036
C 2.429943 5.887576 -7.966228
C 3.000921 5.151848 -6.921365
C 2.890228 3.706418 -6.918177
N 3.637430 2.896356 -7.722650
C 3.132949 1.715544 -7.494304
N 2.011906 1.802749 -6.674919
C 1.076757 0.767938 -6.307924
C 0.533250 -0.053625 -7.294506
C 0.964766 0.120148 -8.752798
O 1.152610 -0.848488 -9.468030
O 0.992417 1.411232 -9.162526
C 1.251168 1.613642 -10.565930
C 0.957167 3.076376 -10.869914
C 2.698946 1.290915 -10.932447
N 2.019393 3.057273 -6.143711
C 3.581130 5.830254 -5.845485
C 3.589750 7.231917 -5.817644
C 4.178897 7.968078 -4.635856
F 5.455589 7.581759 -4.372022
F 3.469796 7.756831 -3.492772
F 4.227812 9.318675 -4.804920
C 3.003081 7.950015 -6.870531
H 0.866150 9.563822 -9.715210
H 0.930677 9.490113 -7.948748
H 2.414267 9.862127 -8.911727
H 1.958820 5.371752 -8.797604
H 3.503063 0.766558 -7.876567
H 0.564155 0.989599 -11.147305
H 1.686877 3.734249 -10.383199
H 0.990683 3.270934 -11.947849
H -0.031799 3.365560 -10.494939
H 3.397149 1.924720 -10.372739
H 2.974566 0.257603 -10.698845
H 2.876152 1.448803 -12.000038
H 4.005134 5.262758 -5.014376
H 3.015326 9.037189 -6.826594
C -9.373266 -2.522829 -11.796387
O -8.199619 -2.688869 -11.004316
C -7.005569 -2.692953 -11.664158
C -5.900816 -3.072985 -10.890337
C -4.607744 -3.127861 -11.437153
C -3.461081 -3.437688 -10.596279
N -2.179341 -3.612349 -11.060011
C -1.463484 -3.696617 -9.969161
N -2.254919 -3.516248 -8.852279
C -1.889993 -3.274114 -7.514948
C -2.449609 -4.020207 -6.498874
C -3.321763 -3.124691 -5.691662
O -2.936614 -2.622513 -4.656528
O -4.559902 -3.126913 -6.228075
C -5.577940 -2.285196 -5.660084
C -6.700797 -3.170467 -5.140357
C -6.072340 -1.402415 -6.794691
N -3.529232 -3.405975 -9.259215
C -4.430035 -2.799661 -12.783113
C -5.522621 -2.406685 -13.577876
C -5.326640 -1.978629 -15.010226
F -5.358262 -0.624338 -15.151244
F -4.145080 -2.389386 -15.546835
F -6.291836 -2.463426 -15.842160
C -6.804093 -2.348579 -13.001568
H -9.404166 -1.521125 -12.236292
H -10.234704 -2.625497 -11.130860
H -9.446253 -3.299596 -12.564391
H -6.059459 -3.322946 -9.845766
H -0.392465 -3.833393 -9.905748
H -5.195534 -1.656543 -4.858514
H -7.700480 -2.766311 -5.346820
H -6.635947 -3.273462 -4.052966
H -6.647526 -4.189659 -5.548204
H -5.302336 -0.685157 -7.099695
H -6.969967 -0.843177 -6.506161
H -6.313458 -1.997603 -7.689363
H -3.430771 -2.820894 -13.218351
H -7.632529 -2.024967 -13.625305
C -10.066898 -4.753859 2.107653
O -9.229515 -4.333136 1.034012
C -8.465790 -5.283298 0.422363
C -7.558319 -4.795909 -0.526629
C -6.691619 -5.662582 -1.205678
C -5.604095 -5.145101 -2.016627
N -5.001637 -3.966635 -1.694404
C -3.904502 -3.994891 -2.401324
N -3.817844 -5.153731 -3.163141
C -2.680400 -5.651768 -3.903982
C -1.457402 -5.869608 -3.289712
C -1.480415 -5.460829 -1.835766
O -0.981191 -4.420570 -1.460226
O -2.081885 -6.424244 -1.121752
C -2.553962 -6.082504 0.204514
C -3.347293 -7.290627 0.681624
C -1.434437 -5.751318 1.193587
N -5.008571 -5.808093 -3.028058
C -6.771817 -7.040302 -0.946783
C -7.651802 -7.541427 0.023217
C -7.637090 -9.012284 0.346122
F -8.269701 -9.314201 1.516878
F -8.238787 -9.766928 -0.614875
F -6.371659 -9.508791 0.473505
C -8.504740 -6.653361 0.697344
H -9.479011 -5.210137 2.911079
H -10.558384 -3.868165 2.518901
H -10.847954 -5.432979 1.759978
H -7.488460 -3.723894 -0.699818
H -3.115885 -3.252524 -2.390333
H -3.234904 -5.234115 0.109344
H -2.689057 -8.094076 1.028735
H -3.940479 -7.714234 -0.132986
H -4.015906 -7.022031 1.502646
H -0.684796 -6.545805 1.237319
H -1.841390 -5.611812 2.196897
H -0.905103 -4.837049 0.922308
H -6.079851 -7.716151 -1.441001
H -9.191182 -7.055778 1.435839
C -2.181013 7.574404 15.514649
O -0.976018 7.273704 14.817043
C -0.549109 5.977774 14.921832
C 0.195620 5.493730 13.843000
C 0.645718 4.169153 13.822736
C 1.307106 3.636696 12.650279
N 2.637629 3.784023 12.404665
C 2.804562 3.103683 11.296481
N 1.620908 2.536714 10.867618
C 1.434978 1.617362 9.786952
C 1.697880 1.961575 8.471072
C 1.839389 3.449766 8.195779
O 2.473625 4.231415 8.881981
O 1.060987 3.791422 7.135908
C 0.847257 5.192110 6.881495
C 0.263886 5.305885 5.472291
C -0.126405 5.754993 7.914239
N 0.660940 2.881536 11.763649
C 0.361515 3.330591 14.906806
C -0.350601 3.812827 16.014907
C -0.658821 2.913863 17.190555
F 0.226450 1.888320 17.334467
F -1.890696 2.338836 17.096565
F -0.652000 3.576281 18.384044
C -0.803491 5.144308 16.013731
H -2.551584 8.530150 15.132403
H -2.956902 6.817501 15.334230
H -1.989553 7.691192 16.585572
H 0.390375 6.140384 12.989004
H 3.740919 2.958069 10.774022
H 1.800242 5.729625 6.921764
H -0.652405 4.711638 5.374013
H 0.964411 4.906064 4.727032
H 0.039674 6.344734 5.206234
H -0.327211 6.817830 7.731951
H -1.076541 5.207368 7.898841
H 0.259986 5.652826 8.937492
H 0.690910 2.290394 14.887652
H -1.355609 5.511761 16.875363
C 11.214045 2.113318 10.363019
O 10.182280 1.533949 9.565769
C 9.251752 0.803025 10.229625
C 8.010398 0.688689 9.600625
C 6.961259 -0.053876 10.162622
C 5.686476 -0.157547 9.469048
N 4.635335 -0.904407 9.916365
C 3.775317 -0.851409 8.930765
N 4.215504 0.004480 7.943318
C 3.640461 0.289995 6.661933
C 4.553528 0.270802 5.621087
C 5.297181 -1.062040 5.823936
O 4.694182 -2.113748 6.026224
O 6.640630 -0.931510 5.870448
C 7.347915 -2.170465 6.115951
C 7.380420 -3.035086 4.849988
C 8.756947 -1.817630 6.571162
N 5.439994 0.455476 8.305377
C 7.177534 -0.710838 11.373508
C 8.422409 -0.632843 12.014422
C 8.694474 -1.352281 13.315830
F 8.832405 -0.493107 14.362792
F 7.722503 -2.237681 13.671337
F 9.854083 -2.067771 13.276211
C 9.455442 0.131980 11.438034
H 10.790556 2.748806 11.150435
H 11.831549 2.746291 9.717013
H 11.866446 1.343854 10.785221
H 7.873507 1.193035 8.650749
H 2.894496 -1.459100 8.831016
H 6.855755 -2.721056 6.921614
H 7.729171 -2.466551 3.985831
H 6.385317 -3.403368 4.602902
H 8.039435 -3.895829 4.986097
H 9.419537 -2.689989 6.609321
H 8.707956 -1.387130 7.577077
H 9.215491 -1.059696 5.928115
H 6.377373 -1.308039 11.816800
H 10.415666 0.171927 11.940267
C 6.877050 11.328864 0.769837
O 6.600728 9.935480 0.856351
C 7.359226 9.205888 1.733784
C 6.970364 7.875290 1.871825
C 7.647664 7.008383 2.748012
C 7.214528 5.632916 2.922301
N 7.908756 4.730439 3.691811
C 7.167714 3.662715 3.629767
N 6.004971 3.872800 2.928643
C 4.841167 3.007698 2.797374
C 4.213962 3.003735 1.574409
C 5.245482 3.210698 0.462978
O 6.363094 2.709909 0.516409
O 4.823670 4.061553 -0.501217
C 5.890434 4.817647 -1.110132
C 5.263976 6.070684 -1.695352
C 6.641752 4.025049 -2.170774
N 6.109806 5.120472 2.369536
C 8.746667 7.496099 3.465111
C 9.153976 8.827210 3.331440
C 10.302686 9.369041 4.141469
F 11.132334 8.407580 4.633819
F 11.095661 10.215630 3.429194
F 9.876989 10.086623 5.219832
C 8.444405 9.681836 2.467002
H 7.879254 11.502489 0.368014
H 6.154399 11.760954 0.075509
H 6.745259 11.824514 1.738338
H 6.117598 7.507142 1.301971
H 7.407433 2.715197 4.072456
H 6.592921 5.147722 -0.337421
H 4.518815 5.814676 -2.454384
H 4.743198 6.633708 -0.915806
H 6.019802 6.731140 -2.134067
H 7.032880 3.079044 -1.787810
H 5.997057 3.772050 -3.012153
H 7.488876 4.600099 -2.552147
H 9.285785 6.823125 4.141944
H 8.766751 10.710528 2.392800
C -7.808708 2.889992 4.888943
O -6.642095 3.356787 4.227851
C -5.696574 2.427803 3.908713
C -4.498492 2.955963 3.436023
C -3.429221 2.127112 3.068132
C -2.190991 2.717325 2.587040
N -1.870438 4.028568 2.808407
C -0.826453 4.201878 2.045523
N -0.521227 3.040976 1.363059
C 0.453884 2.872924 0.352406
C 0.034123 2.619465 -0.941493
C -0.641091 3.845251 -1.531032
O -1.119451 4.754917 -0.868591
O -0.346920 3.897986 -2.855931
C -0.672405 5.133105 -3.539854
C -1.132654 4.817241 -4.957020
C 0.565586 6.014994 -3.584783
N -1.280179 2.041808 1.883102
C -3.588749 0.743635 3.163482
C -4.774512 0.186959 3.657534
C -4.900935 -1.308737 3.830000
F -6.166549 -1.727332 4.106698
F -4.514187 -2.009570 2.728133
F -4.124167 -1.779340 4.848639
C -5.833522 1.042231 4.025863
H -8.382251 2.222777 4.236194
H -8.444613 3.752621 5.116964
H -7.554690 2.400268 5.835812
H -4.391270 4.034180 3.354240
H -0.290153 5.140933 1.892738
H -1.485129 5.650499 -3.024613
H -1.241188 5.721410 -5.561652
H -0.442160 4.136076 -5.466203
H -2.106195 4.318229 -4.950945
H 0.402394 6.917931 -4.163793
H 0.899711 6.291711 -2.581964
H 1.393590 5.461764 -4.045710
H -2.778288 0.080127 2.862532
H -6.748178 0.597038 4.405396
C -9.492724 2.436711 -4.871416
O -8.193092 1.955730 -5.174893
C -7.148219 2.559040 -4.534864
C -5.935684 1.882194 -4.631837
C -4.765469 2.368107 -4.032075
C -3.517793 1.634177 -4.186724
N -3.477664 0.416590 -4.811414
C -2.209201 0.114497 -4.754072
N -1.445065 1.134318 -4.241095
C -0.082304 0.980513 -3.893588
C 0.939265 0.764692 -4.791460
C 2.330263 0.826836 -4.102766
O 2.585661 1.439313 -3.076460
O 3.228560 0.095104 -4.822519
C 4.590722 0.094940 -4.337412
C 5.322299 -1.019549 -5.068717
C 5.291645 1.416483 -4.601251
N -2.314296 2.053826 -3.761318
C -4.826698 3.575871 -3.323053
C -6.039396 4.275397 -3.210951
C -6.100237 5.592723 -2.477699
F -5.683168 6.633314 -3.257636
F -5.332388 5.634719 -1.355849
F -7.365644 5.925907 -2.086957
C -7.199428 3.764639 -3.830496
H -9.665619 3.409515 -5.346544
H -9.658302 2.488964 -3.790638
H -10.215023 1.724416 -5.282771
H -5.901272 0.953967 -5.197179
H -1.759574 -0.819345 -5.009860
H 4.590763 -0.109053 -3.263662
H 5.221186 -0.921120 -6.153637
H 4.898808 -1.991301 -4.798672
H 6.387786 -1.031866 -4.820364
H 6.333004 1.373858 -4.275868
H 4.795948 2.230246 -4.073491
H 5.281168 1.667941 -5.664678
H -3.930525 3.974238 -2.847244
H -8.115043 4.330712 -3.759912
C -5.965110 6.319282 -6.538686
O -4.959640 5.319822 -6.388348
C -4.412345 4.842926 -7.550521
C -3.840401 3.574633 -7.469869
C -3.316905 2.943999 -8.601947
C -2.799779 1.596117 -8.543072
N -2.959568 0.727064 -9.579004
C -2.314176 -0.337664 -9.190079
N -1.761769 -0.175491 -7.920120
C -0.682803 -0.965271 -7.351990
C -0.705507 -2.347664 -7.262055
C 0.511983 -3.209000 -7.007938
O 0.410943 -4.290498 -6.446070
O 1.616885 -2.772036 -7.646306
C 2.556208 -3.798098 -8.010184
C 3.265679 -3.371657 -9.291617
C 3.571253 -4.045654 -6.905091
N -2.020485 1.124090 -7.562404
C -3.334753 3.635428 -9.820468
C -3.854998 4.928381 -9.910893
C -3.810926 5.695331 -11.209172
F -2.700734 6.477823 -11.311815
F -3.804094 4.895254 -12.316038
F -4.864153 6.533973 -11.370519
C -4.398120 5.532491 -8.759640
H -5.512250 7.290923 -6.767713
H -6.707266 6.040731 -7.298140
H -6.496255 6.413162 -5.586593
H -3.837095 3.054206 -6.521282
H -2.095852 -1.170276 -9.833094
H 2.021415 -4.726696 -8.237966
H 2.541834 -3.236923 -10.101427
H 3.993791 -4.128091 -9.604713
H 3.783219 -2.413190 -9.161563
H 4.175150 -3.150506 -6.723661
H 4.248775 -4.870235 -7.165765
H 3.082289 -4.301533 -5.960728
H -2.924405 3.154839 -10.713641
H -4.788501 6.539679 -8.836581
C -9.934133 -6.923362 -11.605921
O -8.854721 -6.466396 -10.807997
C -7.604794 -6.895645 -11.152683
C -6.602169 -6.613699 -10.217330
C -5.273054 -7.014731 -10.428382
C -4.240123 -6.751262 -9.433602
N -2.970231 -7.256830 -9.546266
C -2.386621 -6.843626 -8.449262
N -3.248478 -6.061945 -7.690723
C -2.912818 -5.442569 -6.457249
C -3.034935 -6.143217 -5.274458
C -3.716937 -7.510875 -5.314971
O -4.235488 -8.029156 -6.289105
O -3.504332 -8.154172 -4.136962
C -3.896237 -9.542402 -4.115453
C -3.137422 -10.195337 -2.965248
C -5.404383 -9.676263 -3.927557
N -4.441232 -6.010360 -8.326102
C -4.952147 -7.702245 -11.609823
C -5.951089 -7.993383 -12.558589
C -5.618333 -8.727894 -13.833530
F -6.468182 -9.763775 -14.080998
F -4.368799 -9.262078 -13.864919
F -5.695347 -7.920961 -14.924504
C -7.270456 -7.572330 -12.318869
H -9.981126 -8.018781 -11.629293
H -10.857025 -6.561464 -11.144690
H -9.880533 -6.505900 -12.615686
H -6.863661 -6.076075 -9.306910
H -1.363454 -7.050220 -8.143971
H -3.593201 -10.038995 -5.047557
H -3.314841 -9.664294 -2.025507
H -3.427769 -11.245438 -2.841699
H -2.060893 -10.166558 -3.150324
H -5.883111 -9.743379 -4.909360
H -5.837967 -8.811979 -3.421512
H -5.672595 -10.582612 -3.372122
H -3.926146 -8.026362 -11.788685
H -8.026161 -7.812773 -13.069012
C 5.546066 -7.968298 -10.777230
O 4.877320 -7.445233 -9.632288
C 4.275050 -8.361708 -8.811260
C 3.289816 -7.842073 -7.965295
C 2.555775 -8.683334 -7.116910
C 1.440488 -8.181087 -6.336985
N 0.212237 -8.756652 -6.421087
C -0.485463 -8.136725 -5.503616
N 0.245813 -7.151459 -4.874829
C -0.120079 -6.417978 -3.726092
C 0.894093 -6.286301 -2.893437
C 1.936459 -6.014024 -1.945176
O 1.789022 -5.109176 -1.132591
O 3.061479 -6.761655 -1.962341
C 3.186324 -8.045773 -2.622112
C 4.434321 -7.982043 -3.496548
C 3.339879 -9.068100 -1.501421
N 1.509191 -7.191098 -5.421722
C 2.858283 -10.048572 -7.084177
C 3.878003 -10.574386 -7.895741
C 4.155030 -12.058953 -7.885564
F 3.158418 -12.774532 -8.470487
F 4.292550 -12.571278 -6.633599
F 5.300114 -12.401819 -8.540990
C 4.575235 -9.721108 -8.769762
H 6.496516 -8.428220 -10.500321
H 5.758651 -7.125986 -11.440888
H 4.914075 -8.672243 -11.331934
H 3.058562 -6.785597 -8.003137
H -1.449103 -8.459998 -5.182151
H 2.314919 -8.316675 -3.221599
H 5.234134 -7.492868 -2.926347
H 4.793538 -8.977676 -3.799233
H 4.289807 -7.343846 -4.381405
H 2.461321 -9.043550 -0.853722
H 4.188889 -8.816945 -0.848878
H 3.457926 -10.083917 -1.883435
H 2.282647 -10.720545 -6.434736
H 5.359564 -10.143732 -9.392599
