592
Molecule ID: homopoly_2760316
O -1.534854 1.418591 -8.433775
C -1.251890 2.495018 -7.935937
O -1.239147 3.699914 -8.554347
C -1.664277 3.723979 -9.928249
C -0.510063 3.898950 -10.912809
F -1.059473 4.064767 -12.151030
F 0.106612 5.079522 -10.630361
C 0.482860 2.745689 -10.937507
F -0.232446 1.576386 -11.023435
F 1.149861 2.664822 -9.756659
C 1.445375 2.767109 -12.121640
F 2.167957 1.607309 -12.110542
F 0.725074 2.723526 -13.276284
C 2.405933 3.940890 -12.173343
F 1.729966 5.110491 -12.295004
F 3.061540 4.016104 -10.978423
C 3.449656 3.845214 -13.285488
F 4.288396 4.925298 -13.181998
F 4.253201 2.762770 -13.051909
C 2.959977 3.752674 -14.726591
F 4.048568 3.696663 -15.552338
F 2.318574 2.567514 -14.907331
C 2.072134 4.897951 -15.169210
F 2.644253 6.078711 -14.788662
F 0.891004 4.843809 -14.489649
C 1.799671 4.951983 -16.659286
F 2.955520 5.188139 -17.346140
F 1.003063 6.040595 -16.908743
C 1.118669 3.706663 -17.192869
F 1.926465 2.624048 -17.171874
F 0.734134 3.867561 -18.484787
F 0.007595 3.396552 -16.485377
C -0.846807 2.607413 -6.561935
C -0.368268 2.792305 -5.366400
H -2.324399 4.593066 -10.017326
H -2.277707 2.852930 -10.190753
H -0.991753 2.640133 -4.489912
O 2.621084 -1.097229 -5.150416
C 2.193560 0.009221 -5.423069
O 1.953677 0.474371 -6.675825
C 2.221562 -0.449304 -7.742859
C 3.683876 -0.462263 -8.188459
F 4.459731 -0.971346 -7.195014
F 3.787954 -1.332551 -9.229107
C 4.185993 0.916860 -8.590820
F 3.383642 1.424868 -9.564537
F 4.084868 1.770937 -7.533378
C 5.626823 0.881053 -9.064842
F 6.455256 0.538463 -8.042364
F 5.778903 -0.111224 -9.996419
C 6.082746 2.187713 -9.699301
F 5.333500 2.384564 -10.831009
F 7.363950 2.020124 -10.154662
C 6.026708 3.465242 -8.879159
F 4.741043 3.747929 -8.544290
F 6.408829 4.484463 -9.703757
C 6.917635 3.475240 -7.649971
F 6.505518 2.509696 -6.785127
F 8.190734 3.158059 -7.995629
C 6.895191 4.821384 -6.938866
F 5.666988 5.005236 -6.380015
F 7.033956 5.837571 -7.844898
C 7.972544 5.007176 -5.894108
F 9.198133 5.049872 -6.497946
F 7.812436 6.242027 -5.323061
C 7.961848 3.945410 -4.816368
F 6.738527 3.787464 -4.261873
F 8.826041 4.239496 -3.815069
F 8.340462 2.737760 -5.297866
C 1.850821 1.063128 -4.425252
C 1.416533 0.768268 -3.188279
H 1.888615 -1.453585 -7.455661
H 1.583086 -0.154405 -8.585147
H 1.258420 1.602170 -2.508328
O 4.302983 1.203902 -2.195995
C 4.111821 0.022915 -1.981268
O 4.679654 -1.038063 -2.604711
C 5.576568 -0.768326 -3.697322
C 7.024015 -0.778486 -3.220011
F 7.239768 -1.881879 -2.452124
F 7.231213 0.291194 -2.410208
C 7.975197 -0.756110 -4.402269
F 7.748383 -1.850748 -5.184539
F 7.693020 0.320709 -5.187728
C 9.421159 -0.727220 -3.942116
F 9.664087 0.387298 -3.204818
F 9.660429 -1.784822 -3.121246
C 10.370202 -0.782123 -5.124272
F 10.216889 -1.971474 -5.779046
F 10.020268 0.178379 -6.033928
C 11.838818 -0.583008 -4.778285
F 12.042149 0.687299 -4.327617
F 12.548458 -0.668558 -5.944639
C 12.395229 -1.573250 -3.773119
F 12.014359 -2.834967 -4.106812
F 11.856085 -1.324729 -2.547246
C 13.910388 -1.491519 -3.690659
F 14.293771 -0.214784 -3.427058
F 14.452865 -1.807871 -4.898016
C 14.443670 -2.426212 -2.628502
F 13.933862 -2.094979 -1.407135
F 14.031392 -3.704753 -2.867464
C 15.954529 -2.365595 -2.598797
F 16.416338 -1.121478 -2.322103
F 16.462957 -3.188660 -1.643421
F 16.509265 -2.744260 -3.773578
C 3.101688 -0.541080 -1.035407
C 3.617499 -0.746764 0.194839
H 5.412926 -1.572429 -4.423977
H 5.326531 0.184015 -4.184282
H 4.622670 -0.380446 0.413409
O 3.567323 1.633348 4.449764
C 3.478255 0.924075 3.455712
O 4.257595 1.042246 2.358930
C 5.332480 1.999063 2.471005
C 4.901589 3.442531 2.190484
F 4.331825 3.503026 0.958195
F 3.947373 3.811193 3.071105
C 6.103860 4.368267 2.278469
F 7.059951 3.908785 1.408393
F 6.678224 4.249497 3.515238
C 5.836229 5.833236 1.971851
F 7.044610 6.479724 2.026946
F 5.405069 5.981698 0.687579
C 4.867263 6.507799 2.925891
F 3.609100 6.042788 2.714475
F 5.181626 6.182739 4.210016
C 4.880411 8.018016 2.757613
F 4.595674 8.345468 1.468191
F 6.126751 8.506017 3.002526
C 3.882683 8.676005 3.693501
F 4.157269 8.333943 4.981261
F 2.628917 8.209054 3.440100
C 3.906160 10.187351 3.544926
F 5.160056 10.660694 3.783643
F 3.610508 10.531795 2.262631
C 2.923776 10.832504 4.497283
F 1.662726 10.360486 4.276444
F 3.223211 10.505867 5.786759
C 2.952442 12.336430 4.321672
F 2.080834 12.945622 5.166625
F 2.606414 12.714490 3.069752
F 4.172793 12.860531 4.577435
C 2.505774 -0.195371 3.320865
C 1.468233 -0.256690 4.187410
H 5.780055 1.913540 3.468759
H 6.090082 1.683385 1.746993
H 0.808303 -1.130339 4.109082
O -0.528593 2.046847 8.002500
C -1.443898 1.461204 7.445755
O -2.687703 1.297853 7.975297
C -2.941201 2.017473 9.198490
C -3.557172 3.382098 8.883326
F -4.889899 3.170774 8.629726
F -3.077524 3.860711 7.708705
C -3.429750 4.417292 9.998113
F -4.115849 5.545226 9.642468
F -4.093938 3.923851 11.095110
C -2.024111 4.810828 10.440391
F -2.155089 5.660352 11.505038
F -1.369184 3.727227 10.938555
C -1.171279 5.493992 9.386613
F -1.138329 4.731974 8.259331
F -1.752505 6.665797 9.013552
C 0.274820 5.718075 9.804270
F 0.876477 4.508723 9.986950
F 0.932341 6.293814 8.755268
C 0.481190 6.563374 11.044509
F -0.302078 7.678330 10.955154
F 0.041000 5.905467 12.149164
C 1.924915 6.995108 11.264789
F 1.963301 7.779510 12.388613
F 2.286392 7.836413 10.244803
C 2.981690 5.914305 11.390548
F 4.197148 6.518041 11.582862
F 3.102129 5.233398 10.217794
C 2.716725 4.957185 12.540016
F 1.603472 4.216800 12.332576
F 2.552143 5.598125 13.718296
F 3.733297 4.077506 12.698853
C -1.372318 0.873993 6.076214
C -2.290592 0.019716 5.573300
H -3.651757 1.418252 9.778917
H -2.027420 2.069741 9.790693
H -2.142509 -0.323793 4.549861
O -5.454801 -3.715851 7.735025
C -5.235141 -3.497124 6.555442
O -6.128430 -3.468461 5.535530
C -7.475301 -3.834516 5.877695
C -8.282416 -4.148395 4.616076
F -9.554950 -4.470572 4.977793
F -8.382319 -3.015283 3.869575
C -7.670648 -5.269621 3.790206
F -7.591452 -6.396928 4.551152
F -6.386892 -4.952493 3.446182
C -8.440973 -5.568904 2.516302
F -8.529830 -4.447056 1.759108
F -9.711022 -5.958090 2.784924
C -7.716215 -6.654033 1.730821
F -7.541471 -7.755433 2.530935
F -6.444300 -6.244601 1.426936
C -8.391511 -7.117761 0.448224
F -9.595497 -7.684024 0.727419
F -7.621381 -8.130849 -0.062037
C -8.549463 -6.041863 -0.608775
F -9.480192 -5.142139 -0.202543
F -7.381417 -5.354616 -0.742905
C -8.957623 -6.630089 -1.949028
F -10.095224 -7.360063 -1.800713
F -8.004991 -7.496981 -2.383294
C -9.168986 -5.537863 -2.970603
F -10.117889 -4.658986 -2.533133
F -8.034771 -4.796656 -3.129745
C -9.587161 -6.137812 -4.296236
F -9.764753 -5.170533 -5.230798
F -10.755717 -6.813277 -4.206652
F -8.663499 -6.992923 -4.791710
C -3.898214 -3.162770 6.005254
C -3.238060 -3.869274 5.057422
H -7.937623 -2.991714 6.402475
H -7.483067 -4.704230 6.548224
H -2.332722 -3.354981 4.728809
O 0.510520 -3.492751 3.790678
C -0.240904 -4.461191 3.838346
O -0.312251 -5.300715 4.906467
C 0.236927 -4.744698 6.121582
C 1.680730 -5.151351 6.423252
F 2.383797 -5.249159 5.257745
F 1.669392 -6.410172 6.952948
C 2.408336 -4.214022 7.390395
F 2.607434 -3.014585 6.777888
F 3.650836 -4.710352 7.642616
C 1.643360 -4.028403 8.689932
F 1.339446 -5.241853 9.227109
F 0.440312 -3.446501 8.422949
C 2.415041 -3.201190 9.702332
F 2.842630 -2.037245 9.142562
F 3.538027 -3.863819 10.090239
C 1.537630 -2.904874 10.914372
F 1.094654 -4.069581 11.456873
F 0.428501 -2.216086 10.534296
C 2.283935 -2.107179 11.963801
F 3.277233 -2.865818 12.504113
F 2.915573 -1.055192 11.358523
C 1.411149 -1.526431 13.064830
F 2.217750 -0.793705 13.892790
F 0.539905 -0.623101 12.526818
C 0.655763 -2.547613 13.875911
F 1.492488 -3.526386 14.311158
F -0.280125 -3.164324 13.102143
C -0.027327 -1.868162 15.051701
F -0.906234 -0.918958 14.651808
F 0.852546 -1.271539 15.890704
F -0.730240 -2.760659 15.796222
C -1.369815 -4.702340 2.876120
C -1.263495 -4.102176 1.673954
H -0.407163 -5.118123 6.928308
H 0.125980 -3.652534 6.110547
H -0.361591 -3.534559 1.443033
O -1.428252 -1.246777 2.506989
C -2.048393 -0.997787 1.486593
O -1.887283 0.109642 0.709049
C -1.012690 1.087329 1.307223
C -0.548097 2.158316 0.326005
F 0.048062 1.553759 -0.726775
F -1.610494 2.838886 -0.164856
C 0.419298 3.105881 1.019571
F 1.351484 2.344088 1.684329
F -0.245551 3.776163 2.006185
C 1.172094 4.073178 0.124363
F 2.022527 4.783662 0.926534
F 1.971830 3.372893 -0.730422
C 0.311793 5.036017 -0.672610
F -0.675904 5.529944 0.118979
F -0.309187 4.364005 -1.679606
C 1.162694 6.176135 -1.229334
F 2.209028 5.663218 -1.923758
F 1.703208 6.880447 -0.195866
C 0.370111 7.123375 -2.113942
F 0.047326 6.510717 -3.287326
F -0.833363 7.382725 -1.509543
C 1.042761 8.470417 -2.367424
F 1.202193 9.117738 -1.177374
F 0.160398 9.245281 -3.075432
C 2.351341 8.424997 -3.114399
F 2.167594 7.842214 -4.329462
F 3.260014 7.666956 -2.447829
C 2.894145 9.829511 -3.299171
F 2.049171 10.621836 -4.002743
F 4.066360 9.813355 -3.981520
F 3.136972 10.445648 -2.121105
C -3.213052 -1.797990 1.031945
C -4.374808 -1.172582 1.321780
H -1.565175 1.559394 2.126537
H -0.128912 0.569660 1.698546
H -4.317510 -0.202021 1.822270
O 2.187046 5.307540 -4.886338
C 1.375837 4.657145 -5.521633
O 0.723889 5.054386 -6.638076
C 1.134283 6.319211 -7.197993
C 2.331608 6.141456 -8.127604
F 3.370016 5.606991 -7.441724
F 2.001668 5.232840 -9.081699
C 2.732764 7.466324 -8.750017
F 1.649436 8.020972 -9.366011
F 3.073872 8.338279 -7.757818
C 3.879214 7.305676 -9.735296
F 3.509665 6.503839 -10.767446
F 4.926346 6.686614 -9.133218
C 4.326258 8.653771 -10.270716
F 3.237978 9.321674 -10.764696
F 4.788037 9.437989 -9.259531
C 5.368029 8.580658 -11.378738
F 4.789125 7.993956 -12.475114
F 5.646500 9.862038 -11.784558
C 6.689727 7.872604 -11.102334
F 7.456647 7.956010 -12.235336
F 6.460849 6.545610 -10.936814
C 7.472545 8.435278 -9.931386
F 7.626363 9.777248 -10.094513
F 6.748595 8.284599 -8.791983
C 8.822097 7.766665 -9.785522
F 9.574202 7.951398 -10.907289
F 8.680705 6.416781 -9.651109
C 9.542637 8.337324 -8.580046
F 10.759278 7.762998 -8.411607
F 9.754641 9.670646 -8.693901
F 8.859485 8.139497 -7.428305
C 0.987078 3.260614 -5.180847
C 1.998091 2.466527 -4.786256
H 1.333733 7.041474 -6.401569
H 0.267966 6.681323 -7.767157
H 3.015737 2.854100 -4.723131
O 0.151205 -2.458045 -3.608216
C 0.018724 -1.337533 -3.137792
O -1.131674 -0.605818 -3.166627
C -2.129223 -1.185925 -4.034267
C -3.560565 -0.737127 -3.718667
F -3.644604 0.616525 -3.739900
F -3.895620 -1.134092 -2.464130
C -4.490830 -1.364176 -4.744304
F -4.383172 -2.725178 -4.665800
F -4.020761 -1.042143 -5.993782
C -5.949183 -0.968879 -4.681147
F -6.083537 0.366066 -4.906035
F -6.570349 -1.571208 -5.742312
C -6.664733 -1.339165 -3.398174
F -6.277724 -0.501582 -2.398070
F -6.308594 -2.585675 -2.993767
C -8.171731 -1.268473 -3.614518
F -8.499633 -0.063298 -4.158237
F -8.546477 -2.210484 -4.522620
C -8.936889 -1.462871 -2.324415
F -8.525735 -2.604909 -1.708319
F -8.630779 -0.441753 -1.483809
C -10.432699 -1.500004 -2.577265
F -10.728074 -2.492463 -3.458608
F -10.822955 -0.345951 -3.188470
C -11.204174 -1.684361 -1.293508
F -11.008374 -0.616332 -0.469091
F -10.755043 -2.775126 -0.611212
C -12.678734 -1.843199 -1.601250
F -12.927561 -2.930906 -2.370516
F -13.187555 -0.771223 -2.254874
F -13.410412 -1.996783 -0.471913
C 1.142967 -0.527850 -2.594772
C 1.852658 -1.070773 -1.586205
H -1.856685 -0.881722 -5.051812
H -2.100395 -2.277881 -3.959684
H 1.517736 -2.027410 -1.186058
O 2.007937 -3.782644 1.095315
C 2.990060 -3.092956 0.846437
O 4.112753 -3.542430 0.230627
C 4.020465 -4.933451 -0.162308
C 3.254463 -5.133067 -1.481748
F 4.155501 -5.472264 -2.451043
F 2.752192 -3.924494 -1.880853
C 2.110817 -6.149541 -1.473443
F 1.507634 -6.108270 -2.696431
F 1.155072 -5.771079 -0.582647
C 2.568489 -7.564782 -1.180730
F 3.397652 -8.005152 -2.166463
F 3.342550 -7.552740 -0.048653
C 1.447157 -8.573217 -0.945684
F 2.046483 -9.733957 -0.529101
F 0.668804 -8.182311 0.097579
C 0.583013 -8.891860 -2.150194
F 1.373594 -9.370791 -3.151666
F 0.021135 -7.747890 -2.638435
C -0.566601 -9.863457 -1.903318
F -1.166280 -10.100323 -3.110607
F -1.525783 -9.247269 -1.151187
C -0.191026 -11.177348 -1.249170
F 0.177596 -10.943918 0.039819
F 0.893683 -11.709759 -1.869978
C -1.348502 -12.151961 -1.277942
F -2.453152 -11.595451 -0.700934
F -1.701986 -12.434980 -2.563672
C -0.962565 -13.426052 -0.551457
F -0.665335 -13.200924 0.751008
F -1.979690 -14.324970 -0.568986
F 0.107902 -14.034183 -1.111040
C 3.099708 -1.639927 1.206707
C 2.677686 -1.377107 2.460603
H 5.051208 -5.285404 -0.283547
H 3.599731 -5.504178 0.670424
H 2.346710 -2.266042 3.012933
O 1.107874 -0.797098 7.267514
C 1.474454 0.203269 6.669704
O 2.318171 1.173975 7.099834
C 2.692279 1.133124 8.485818
C 4.198131 1.043697 8.744628
F 4.344861 0.471035 9.973917
F 4.700452 2.306176 8.884678
C 5.014252 0.293139 7.701031
F 4.357650 -0.827470 7.297277
F 5.161355 1.063895 6.592146
C 6.383812 -0.088301 8.229201
F 6.226152 -0.857637 9.353215
F 7.076677 1.004148 8.639177
C 7.210373 -0.902380 7.244586
F 6.530054 -2.058343 6.955074
F 8.342341 -1.326647 7.897568
C 7.646530 -0.267703 5.929922
F 6.577735 -0.006242 5.130869
F 8.360488 -1.217648 5.245115
C 8.506906 0.972418 6.095601
F 9.510405 0.722166 6.976617
F 7.758305 1.968407 6.642647
C 9.078231 1.437693 4.768676
F 9.748524 0.419556 4.159412
F 8.060679 1.764592 3.923014
C 10.007838 2.612120 4.955380
F 9.377024 3.628503 5.610198
F 11.061899 2.258396 5.746346
C 10.506490 3.087534 3.607909
F 11.127620 2.108161 2.904502
F 11.396317 4.102381 3.736621
F 9.496951 3.551081 2.831679
C 0.999339 0.568704 5.305407
C -0.230265 1.127876 5.171523
H 2.313120 2.052538 8.945201
H 2.192553 0.308619 9.004566
H -0.560246 1.333162 4.155513
O -5.739914 -0.604062 6.733477
C -4.799348 -0.143211 6.108815
O -4.823447 1.019247 5.406002
C -5.933990 1.890000 5.733506
C -7.208420 1.593345 4.944022
F -7.647059 0.339185 5.199664
F -6.918111 1.631042 3.614865
C -8.288277 2.613482 5.296123
F -7.826921 3.860214 4.979432
F -8.475775 2.640536 6.640200
C -9.592544 2.342555 4.566404
F -10.032288 1.070916 4.754777
F -9.319027 2.437233 3.224446
C -10.704353 3.329265 4.901729
F -11.432499 3.528104 3.749363
F -10.188598 4.554616 5.193347
C -11.724293 2.910827 5.958922
F -12.667376 3.903789 6.026307
F -12.398945 1.805285 5.528649
C -11.184346 2.651894 7.351094
F -10.432347 3.704851 7.756277
F -10.353896 1.577086 7.285696
C -12.289032 2.372297 8.356559
F -13.240799 3.349221 8.277711
F -12.926612 1.218428 8.013116
C -11.825318 2.300411 9.798158
F -11.353166 3.518035 10.194625
F -12.923497 2.061673 10.585957
C -10.786040 1.227586 10.050241
F -9.607356 1.510603 9.449049
F -11.190598 0.017444 9.604331
F -10.515057 1.100286 11.372919
C -3.417914 -0.705978 6.140343
C -3.152073 -1.983887 6.490795
H -6.119743 1.847960 6.814260
H -5.581201 2.902347 5.504977
H -2.094061 -2.234962 6.627729
O -5.105128 -6.111587 5.730550
C -4.328488 -6.227042 4.800945
O -4.173533 -7.364758 4.070369
C -4.943433 -8.516204 4.455885
C -4.319829 -9.355611 5.567854
F -4.136975 -8.586245 6.675783
F -5.265508 -10.283481 5.929916
C -3.024214 -10.098259 5.239056
F -2.718382 -10.897160 6.306156
F -3.230665 -10.943766 4.189664
C -1.849791 -9.187936 4.939390
F -2.051976 -8.553264 3.751812
F -1.769409 -8.202427 5.876013
C -0.537493 -9.953855 4.869117
F -0.313794 -10.629021 6.029308
F -0.596181 -10.896090 3.888890
C 0.615943 -8.996935 4.605266
F 0.406010 -8.324849 3.438505
F 0.644439 -8.052089 5.580987
C 1.955356 -9.718774 4.558496
F 2.156325 -10.406455 5.713207
F 1.954482 -10.638218 3.559484
C 3.101414 -8.741619 4.356135
F 3.222083 -7.935986 5.446966
F 2.798048 -7.898975 3.320071
C 4.436762 -9.381030 4.046020
F 5.357225 -8.378850 3.851614
F 4.376157 -10.041491 2.850737
C 4.934018 -10.310614 5.134830
F 4.179584 -11.427683 5.237233
F 6.199895 -10.723406 4.889988
F 4.939267 -9.717283 6.354497
C -3.386081 -5.143806 4.338406
C -2.543672 -5.457873 3.318225
H -5.953258 -8.208450 4.745734
H -5.067622 -9.132743 3.560069
H -2.623473 -6.401230 2.785093
O -1.906622 -6.453098 0.157750
C -2.344293 -5.378179 -0.219274
O -3.008574 -5.192983 -1.392599
C -3.340163 -6.417766 -2.081812
C -4.127213 -6.130226 -3.363401
F -5.026131 -5.136586 -3.060100
F -4.891146 -7.212336 -3.670634
C -3.279771 -5.701999 -4.559239
F -4.092672 -5.138892 -5.505583
F -2.437503 -4.713560 -4.177975
C -2.559018 -6.876304 -5.207718
F -1.971554 -7.677289 -4.281771
F -3.518511 -7.662939 -5.794540
C -1.547179 -6.463341 -6.269620
F -1.382643 -7.504029 -7.147786
F -2.033413 -5.434219 -7.010867
C -0.182415 -6.144714 -5.679232
F -0.302366 -5.260651 -4.659069
F 0.325569 -7.281470 -5.122317
C 0.776545 -5.611958 -6.725066
F 0.849179 -6.479219 -7.773323
F 0.300296 -4.444031 -7.239299
C 2.164240 -5.404266 -6.140427
F 2.099804 -4.579178 -5.060900
F 2.646323 -6.591227 -5.670843
C 3.112847 -4.839743 -7.171981
F 3.191185 -5.679553 -8.247455
F 2.641916 -3.656407 -7.663812
C 4.484624 -4.644223 -6.559504
F 4.474899 -3.784756 -5.514614
F 5.354913 -4.139660 -7.468854
F 5.015785 -5.805737 -6.113077
C -2.233610 -4.104823 0.585746
C -3.073372 -3.075417 0.338804
H -2.428239 -6.984766 -2.277294
H -3.973518 -7.020271 -1.416537
H -3.806097 -3.192544 -0.462164
O -8.041154 -0.806187 1.080255
C -6.847110 -0.564926 0.996009
O -6.300825 0.648867 0.749931
C -7.221154 1.704244 0.459418
C -6.469017 2.981870 0.102135
F -5.918457 3.485622 1.242408
F -7.385007 3.899096 -0.300597
C -5.382660 2.765395 -0.958955
F -5.911564 2.142408 -2.044838
F -4.450774 1.893297 -0.452552
C -4.649707 4.041075 -1.360941
F -3.415708 3.716923 -1.860655
F -4.387573 4.765431 -0.231070
C -5.360950 4.918335 -2.388464
F -4.881942 6.194321 -2.264465
F -6.681563 5.008259 -2.122789
C -5.103165 4.471783 -3.829961
F -5.328415 3.150869 -3.990321
F -3.766277 4.641259 -4.086569
C -5.885176 5.281447 -4.863569
F -5.212493 5.285813 -6.054062
F -5.905748 6.589191 -4.469005
C -7.316121 4.803444 -5.108985
F -8.051588 5.854807 -5.582840
F -7.901420 4.440932 -3.941900
C -7.402168 3.681518 -6.127009
F -6.601958 2.643628 -5.776074
F -6.938125 4.103109 -7.338766
C -8.840946 3.209816 -6.248161
F -8.954344 2.217809 -7.166833
F -9.306152 2.714668 -5.077722
F -9.679171 4.200057 -6.628466
C -5.751096 -1.584023 1.077033
C -6.071362 -2.839231 0.966147
H -7.863948 1.418094 -0.379271
H -7.854857 1.885302 1.332415
H -6.319431 -3.865443 0.841920
