336
Molecule ID: homopoly_699414
C 9.267810 -6.224165 -3.984706
O 9.244601 -5.266272 -2.935749
C 8.536720 -5.606508 -1.815909
C 8.137271 -4.530578 -1.019464
C 7.369604 -4.739597 0.127317
C 7.002982 -6.036196 0.492419
C 6.088078 -6.242445 1.573305
C 5.088187 -6.363751 2.402918
C 3.794748 -5.886271 1.882197
O 3.239358 -4.860432 2.224833
O 3.261840 -6.732772 0.980602
C 7.428063 -7.119113 -0.278920
C 8.193533 -6.904756 -1.434454
H 8.254674 -6.555070 -4.241809
H 9.904070 -7.076402 -3.723367
H 9.698844 -5.743945 -4.870223
H 8.400114 -3.517017 -1.315142
H 7.039543 -3.884269 0.711448
H 2.415532 -6.313585 0.718247
H 7.144511 -8.134107 -0.010988
H 8.505260 -7.763115 -2.015681
C 8.291580 -0.889287 5.944241
O 8.175915 -2.162799 6.567620
C 7.172939 -2.974845 6.114448
C 7.003258 -4.156193 6.840223
C 5.990263 -5.061650 6.510956
C 5.108434 -4.790183 5.458011
C 3.951515 -5.673244 5.098024
C 2.739161 -5.416744 5.669654
C 2.693766 -5.090553 7.140456
O 3.465927 -4.443311 7.821198
O 1.614895 -5.674213 7.703689
C 5.318125 -3.624474 4.708214
C 6.336788 -2.721150 5.032888
H 7.359161 -0.319478 6.025487
H 8.604974 -0.991168 4.899445
H 9.066260 -0.326203 6.471334
H 7.654076 -4.364630 7.684965
H 5.867831 -5.947165 7.129323
H 1.656917 -5.369374 8.634747
H 4.676539 -3.393075 3.858875
H 6.440829 -1.831893 4.418288
C -5.099752 -6.459333 8.166656
O -4.121137 -5.485812 8.515307
C -3.264212 -5.092293 7.526326
C -3.220555 -5.604348 6.228414
C -2.318560 -5.081169 5.300098
C -1.430216 -4.059141 5.662108
C -0.475473 -3.483077 4.662379
C -0.922134 -2.429307 3.910177
C -2.328093 -1.966326 4.068820
O -2.695005 -0.917833 4.575074
O -3.213735 -2.782832 3.461351
C -1.451675 -3.574518 6.975657
C -2.366576 -4.088151 7.895350
H -5.728463 -6.114341 7.337771
H -4.629736 -7.420206 7.932566
H -5.750257 -6.607671 9.035156
H -3.874403 -6.408774 5.905087
H -2.316519 -5.472128 4.286190
H -4.066289 -2.328091 3.632851
H -0.762302 -2.794442 7.289039
H -2.383547 -3.697782 8.909100
C 4.556510 -0.176377 8.150073
O 3.196350 0.204166 8.340870
C 2.471390 0.414795 7.205312
C 3.000778 0.796350 5.972546
C 2.167966 0.898796 4.852179
C 0.800031 0.613676 4.941725
C -0.097606 0.666177 3.750096
C -0.934599 1.747051 3.524680
C -2.026648 1.513794 2.548939
O -1.950732 1.011515 1.441018
O -3.203553 1.945753 3.037093
C 0.279099 0.222064 6.183468
C 1.102094 0.161716 7.313013
H 4.659425 -0.947712 7.378170
H 4.923946 -0.599728 9.090329
H 5.168040 0.697563 7.909319
H 4.057520 1.015866 5.850339
H 2.611535 1.191607 3.904702
H -3.743513 2.025842 2.211350
H -0.778406 -0.013563 6.284406
H 0.677989 -0.128845 8.271129
C -6.241486 9.614465 4.141993
O -6.345065 8.199618 4.225309
C -5.281875 7.472556 3.757435
C -4.072523 7.998335 3.311856
C -3.052567 7.144297 2.877341
C -3.232451 5.748723 2.878307
C -2.097684 4.829235 2.478667
C -1.858482 4.726803 1.133091
C -2.650804 5.620911 0.207090
O -3.856405 5.735838 0.142700
O -1.833907 6.290325 -0.632375
C -4.448701 5.225635 3.328124
C -5.466535 6.086834 3.760081
H -6.084825 9.938325 3.107023
H -7.188902 10.039407 4.481507
H -5.453108 9.988661 4.800049
H -3.879055 9.063760 3.310713
H -2.106026 7.576291 2.565449
H -2.395681 6.617826 -1.367172
H -4.615767 4.152840 3.360013
H -6.405467 5.672049 4.112724
C 0.100600 -2.394257 -5.082136
O -0.035472 -1.022963 -5.424787
C -0.497465 -0.192950 -4.441425
C -0.709187 -0.540858 -3.117160
C -1.190410 0.417389 -2.220898
C -1.477634 1.735691 -2.616498
C -1.996182 2.711417 -1.568598
C -3.378221 2.735811 -1.547663
C -4.187368 3.044398 -0.336874
O -3.925262 2.772414 0.817835
O -5.362731 3.609914 -0.639558
C -1.213417 2.086111 -3.938542
C -0.747421 1.121827 -4.840906
H 0.875988 -2.533958 -4.322432
H -0.854408 -2.817045 -4.758196
H 0.415245 -2.935494 -5.977345
H -0.520385 -1.539786 -2.739035
H -1.343501 0.117998 -1.187434
H -5.685780 4.029880 0.183820
H -1.374806 3.098276 -4.275596
H -0.593834 1.393957 -5.878033
C -10.011944 6.109019 -0.746144
O -8.830971 6.840245 -1.049578
C -7.886554 6.168008 -1.771229
C -6.580792 6.638889 -1.635514
C -5.531093 6.029299 -2.327242
C -5.759822 4.942042 -3.184414
C -4.639325 4.318503 -3.983893
C -4.058967 5.135614 -4.912805
C -4.564101 6.556200 -5.017668
O -3.952738 7.567154 -4.705862
O -5.775393 6.618591 -5.609888
C -7.083113 4.501698 -3.337900
C -8.137581 5.102210 -2.634976
H -10.579733 6.685498 -0.007809
H -9.779004 5.136081 -0.298560
H -10.645258 5.993677 -1.631644
H -6.370605 7.471836 -0.970209
H -4.526441 6.413205 -2.189754
H -5.994573 7.571829 -5.619594
H -7.324744 3.703353 -4.033605
H -9.141399 4.729677 -2.799018
C -3.653324 11.836253 -8.455689
O -3.362583 10.721837 -9.292547
C -2.723259 9.668031 -8.699787
C -2.109973 9.689054 -7.451226
C -1.528874 8.525284 -6.924812
C -1.547587 7.317051 -7.637828
C -1.032044 6.043954 -7.019772
C 0.123426 5.484494 -7.476929
C 0.883702 6.147995 -8.574727
O 0.512888 6.350030 -9.719091
O 2.112530 6.519865 -8.167065
C -2.123376 7.322920 -8.914249
C -2.697610 8.487600 -9.440919
H -4.353772 12.488289 -8.992170
H -2.746939 12.416287 -8.248598
H -4.146715 11.528807 -7.524388
H -2.067478 10.592911 -6.850618
H -1.076084 8.584886 -5.938070
H 2.493995 6.956090 -8.958707
H -2.133549 6.418706 -9.519431
H -3.143121 8.461479 -10.433120
C 10.022527 -11.479989 3.656852
O 8.651678 -11.677743 3.337379
C 7.832329 -10.586637 3.448268
C 8.141952 -9.403899 4.114659
C 7.214248 -8.358259 4.149692
C 5.965614 -8.481105 3.521963
C 5.051856 -7.299455 3.531570
C 4.296170 -7.052372 4.636706
C 4.058532 -8.188941 5.581188
O 3.661086 -9.305583 5.290233
O 4.344745 -7.882424 6.857850
C 5.652231 -9.667885 2.858330
C 6.579020 -10.716048 2.837473
H 10.455914 -10.663311 3.070518
H 10.159253 -11.311148 4.731318
H 10.561784 -12.396644 3.396656
H 9.089577 -9.262298 4.622975
H 7.478489 -7.432970 4.663123
H 4.168850 -8.719948 7.334459
H 4.689266 -9.795195 2.369744
H 6.324704 -11.646578 2.337217
C -1.391635 -9.878074 1.404699
O -1.235377 -9.717049 2.809784
C -0.606234 -8.578991 3.231811
C -0.327044 -7.459098 2.452234
C 0.326954 -6.359833 3.017209
C 0.704729 -6.349503 4.369493
C 1.458240 -5.186299 4.913063
C 0.952552 -3.914088 4.787392
C 1.883524 -2.817298 5.133730
O 2.600458 -2.206259 4.366099
O 1.844650 -2.593847 6.455610
C 0.406184 -7.473078 5.145489
C -0.244877 -8.573572 4.580031
H -0.427955 -9.806060 0.886672
H -1.795514 -10.880265 1.222725
H -2.109150 -9.151524 1.007994
H -0.605263 -7.410004 1.403414
H 0.551111 -5.508303 2.380530
H 2.566017 -1.947297 6.608223
H 0.673023 -7.509016 6.197065
H -0.462342 -9.442155 5.195878
C -0.429820 -5.468971 -2.571934
O 0.670368 -4.901170 -1.870033
C 0.372301 -4.151159 -0.765141
C 1.478337 -3.681677 -0.052255
C 1.311736 -2.934099 1.119472
C 0.037837 -2.609759 1.582930
C -0.195104 -1.767416 2.800965
C 0.122570 -0.436480 2.743505
C 1.001920 -0.001185 1.608170
O 2.180667 0.300497 1.697611
O 0.336959 0.104626 0.454917
C -1.071117 -3.057091 0.838678
C -0.904357 -3.825747 -0.317718
H -0.982628 -6.165638 -1.934398
H -1.085982 -4.689968 -2.969537
H -0.030664 -6.030989 -3.420801
H 2.480303 -3.909062 -0.401017
H 2.197622 -2.606473 1.661928
H 0.915237 0.602433 -0.166883
H -2.079104 -2.792570 1.143807
H -1.798844 -4.140147 -0.848926
C -0.571476 3.364673 10.680925
O 0.393593 3.677023 9.681764
C 0.004627 3.512746 8.379668
C 1.001734 3.767289 7.435516
C 0.746425 3.623036 6.071227
C -0.519561 3.213960 5.630452
C -0.890214 3.121942 4.174756
C -1.286017 4.343400 3.651767
C -0.783254 5.541398 4.430145
O 0.292814 6.080275 4.245900
O -1.639875 5.953362 5.382890
C -1.525540 2.972564 6.584150
C -1.264892 3.124066 7.948765
H -1.410698 4.065807 10.640827
H -0.090985 3.476628 11.657024
H -0.915615 2.328156 10.597444
H 1.992029 4.069605 7.764318
H 1.533774 3.837952 5.352791
H -1.159775 6.669566 5.839977
H -2.526621 2.686744 6.261669
H -2.074605 2.935393 8.644357
C 5.143087 4.835567 3.140735
O 4.458737 5.629210 2.173030
C 3.214813 5.180846 1.808531
C 2.417923 6.104895 1.136155
C 1.127370 5.755466 0.706935
C 0.626105 4.470192 0.939492
C -0.744620 4.054565 0.454500
C -0.869274 3.299215 -0.692462
C 0.470803 3.223283 -1.386314
O 0.912053 4.077461 -2.141993
O 1.161028 2.092559 -1.124295
C 1.441757 3.557697 1.604565
C 2.724911 3.901783 2.043497
H 6.042028 5.372287 3.448320
H 4.525675 4.679517 4.031238
H 5.457501 3.875711 2.714376
H 2.795505 7.105113 0.948297
H 0.537654 6.502314 0.183891
H 1.951450 2.202547 -1.697522
H 1.092600 2.553877 1.779553
H 3.316873 3.137008 2.531123
C -6.428819 -3.779489 -0.804210
O -6.982021 -2.786970 -1.657864
C -6.254150 -1.648604 -1.836736
C -6.860610 -0.671096 -2.621209
C -6.215185 0.545126 -2.881182
C -4.920157 0.816208 -2.408697
C -4.226099 2.155400 -2.671126
C -4.456244 2.840023 -3.842187
C -4.782609 2.008126 -5.037564
O -4.122279 1.077630 -5.465355
O -5.903423 2.402202 -5.663212
C -4.369595 -0.155389 -1.556886
C -5.005159 -1.378442 -1.293402
H -7.149267 -4.600025 -0.735954
H -5.497283 -4.184403 -1.218818
H -6.273967 -3.390756 0.207403
H -7.854335 -0.847841 -3.029096
H -6.771850 1.284968 -3.450340
H -5.924990 1.830044 -6.463174
H -3.436767 0.021412 -1.035642
H -4.495722 -2.082014 -0.642318
C -5.468896 3.214147 -11.760517
O -4.721759 2.484889 -10.794337
C -4.349021 3.157643 -9.665848
C -4.765413 4.435811 -9.300730
C -4.326518 5.005311 -8.098435
C -3.450790 4.318919 -7.250540
C -3.012794 4.892041 -5.945045
C -1.800015 5.520534 -5.841857
C -1.330309 5.957268 -4.474767
O -1.805587 5.639780 -3.393211
O -0.269500 6.770356 -4.531565
C -3.031212 3.042975 -7.630889
C -3.489201 2.463204 -8.818869
H -4.893827 4.069263 -12.127766
H -6.436635 3.527525 -11.357593
H -5.659835 2.548466 -12.608636
H -5.440572 5.017019 -9.919289
H -4.676270 6.004197 -7.847245
H 0.038163 6.854787 -3.599428
H -2.368681 2.463604 -6.996644
H -3.162589 1.459451 -9.084802
C 1.092391 -1.719786 -9.468484
O 0.921788 -0.474097 -10.147849
C 0.949558 0.631760 -9.342783
C 1.692076 0.744518 -8.171059
C 1.639949 1.922028 -7.419304
C 0.844897 3.012978 -7.810724
C 0.740623 4.253797 -6.973960
C 1.454063 4.347386 -5.879331
C 2.279487 4.390348 -4.710993
O 2.879238 3.405443 -4.297809
O 2.357769 5.593809 -4.124665
C 0.139420 2.890452 -9.018789
C 0.198808 1.716274 -9.780239
H 2.136170 -1.864710 -9.169617
H 0.419110 -1.799040 -8.608202
H 0.835073 -2.518710 -10.171851
H 2.320712 -0.063314 -7.814056
H 2.225330 1.956367 -6.504878
H 2.904132 5.428880 -3.326722
H -0.490371 3.694399 -9.397699
H -0.363980 1.645556 -10.707747
